# generated using pymatgen
data_Fe13O19
_symmetry_space_group_name_H-M   'P 1'
_cell_length_a   22.19173200
_cell_length_b   2.91076400
_cell_length_c   11.02053666
_cell_angle_alpha   90.00000000
_cell_angle_beta   118.47023174
_cell_angle_gamma   90.00000000
_symmetry_Int_Tables_number   1
_chemical_formula_structural   Fe13O19
_chemical_formula_sum   'Fe26 O38'
_cell_volume   625.78028831
_cell_formula_units_Z   2
loop_
 _symmetry_equiv_pos_site_id
 _symmetry_equiv_pos_as_xyz
  1  'x, y, z'
loop_
 _atom_type_symbol
 _atom_type_oxidation_number
  Fe2+  2.0
  Fe3+  3.0
  O2-  -2.0
loop_
 _atom_site_type_symbol
 _atom_site_label
 _atom_site_symmetry_multiplicity
 _atom_site_fract_x
 _atom_site_fract_y
 _atom_site_fract_z
 _atom_site_occupancy
  Fe2+  Fe0  1  0.00000000  0.00000000  0.00000000  1
  Fe2+  Fe1  1  0.50000000  0.50000000  0.00000000  1
  Fe3+  Fe2  1  0.42629800  0.50000000  0.45284400  1
  Fe3+  Fe3  1  0.07370200  0.00000000  0.54715600  1
  Fe3+  Fe4  1  0.26390900  0.00000000  0.37501700  1
  Fe3+  Fe5  1  0.23609100  0.50000000  0.62498300  1
  Fe3+  Fe6  1  0.46658600  0.00000000  0.21900200  1
  Fe3+  Fe7  1  0.03341400  0.50000000  0.78099800  1
  Fe3+  Fe8  1  0.11847600  0.50000000  0.33165700  1
  Fe3+  Fe9  1  0.38152400  0.00000000  0.66834300  1
  Fe3+  Fe10  1  0.34370200  0.00000000  0.91919300  1
  Fe3+  Fe11  1  0.15629800  0.50000000  0.08080700  1
  Fe3+  Fe12  1  0.30285100  0.00000000  0.14875600  1
  Fe3+  Fe13  1  0.19714900  0.50000000  0.85124400  1
  Fe3+  Fe14  1  0.92629800  0.00000000  0.45284400  1
  Fe3+  Fe15  1  0.57370200  0.50000000  0.54715600  1
  Fe3+  Fe16  1  0.76390900  0.50000000  0.37501700  1
  Fe3+  Fe17  1  0.73609100  0.00000000  0.62498300  1
  Fe3+  Fe18  1  0.96658600  0.50000000  0.21900200  1
  Fe3+  Fe19  1  0.53341400  0.00000000  0.78099800  1
  Fe3+  Fe20  1  0.61847600  0.00000000  0.33165700  1
  Fe3+  Fe21  1  0.88152400  0.50000000  0.66834300  1
  Fe3+  Fe22  1  0.84370200  0.50000000  0.91919300  1
  Fe3+  Fe23  1  0.65629800  0.00000000  0.08080700  1
  Fe3+  Fe24  1  0.80285100  0.50000000  0.14875600  1
  Fe3+  Fe25  1  0.69714900  0.00000000  0.85124400  1
  O2-  O26  1  0.00000000  0.50000000  0.50000000  1
  O2-  O27  1  0.41091200  0.50000000  0.25875600  1
  O2-  O28  1  0.08908800  0.00000000  0.74124400  1
  O2-  O29  1  0.30408300  0.50000000  0.53676500  1
  O2-  O30  1  0.19591700  0.00000000  0.46323500  1
  O2-  O31  1  0.16060300  0.00000000  0.22106300  1
  O2-  O32  1  0.33939700  0.50000000  0.77893700  1
  O2-  O33  1  0.44883600  0.50000000  0.65793800  1
  O2-  O34  1  0.05116400  0.00000000  0.34206200  1
  O2-  O35  1  0.36266000  0.00000000  0.42136300  1
  O2-  O36  1  0.13734000  0.50000000  0.57863700  1
  O2-  O37  1  0.30068800  0.50000000  0.00171500  1
  O2-  O38  1  0.19931200  0.00000000  0.99828500  1
  O2-  O39  1  0.23836600  0.00000000  0.76900200  1
  O2-  O40  1  0.26163400  0.50000000  0.23099800  1
  O2-  O41  1  0.07656500  0.00000000  0.95258900  1
  O2-  O42  1  0.42343500  0.50000000  0.04741100  1
  O2-  O43  1  0.46110400  0.00000000  0.85940400  1
  O2-  O44  1  0.03889600  0.50000000  0.14059600  1
  O2-  O45  1  0.50000000  0.00000000  0.50000000  1
  O2-  O46  1  0.91091200  0.00000000  0.25875600  1
  O2-  O47  1  0.58908800  0.50000000  0.74124400  1
  O2-  O48  1  0.80408300  0.00000000  0.53676500  1
  O2-  O49  1  0.69591700  0.50000000  0.46323500  1
  O2-  O50  1  0.66060300  0.50000000  0.22106300  1
  O2-  O51  1  0.83939700  0.00000000  0.77893700  1
  O2-  O52  1  0.94883600  0.00000000  0.65793800  1
  O2-  O53  1  0.55116400  0.50000000  0.34206200  1
  O2-  O54  1  0.86266000  0.50000000  0.42136300  1
  O2-  O55  1  0.63734000  0.00000000  0.57863700  1
  O2-  O56  1  0.80068800  0.00000000  0.00171500  1
  O2-  O57  1  0.69931200  0.50000000  0.99828500  1
  O2-  O58  1  0.73836600  0.50000000  0.76900200  1
  O2-  O59  1  0.76163400  0.00000000  0.23099800  1
  O2-  O60  1  0.57656500  0.50000000  0.95258900  1
  O2-  O61  1  0.92343500  0.00000000  0.04741100  1
  O2-  O62  1  0.96110400  0.50000000  0.85940400  1
  O2-  O63  1  0.53889600  0.00000000  0.14059600  1
