# generated using pymatgen
data_Fe25O32
_symmetry_space_group_name_H-M   'P 1'
_cell_length_a   15.27967600
_cell_length_b   26.32420800
_cell_length_c   2.87713300
_cell_angle_alpha   90.00000000
_cell_angle_beta   90.00000000
_cell_angle_gamma   90.00000000
_symmetry_Int_Tables_number   1
_chemical_formula_structural   Fe25O32
_chemical_formula_sum   'Fe50 O64'
_cell_volume   1157.25588315
_cell_formula_units_Z   2
loop_
 _symmetry_equiv_pos_site_id
 _symmetry_equiv_pos_as_xyz
  1  'x, y, z'
loop_
 _atom_type_symbol
 _atom_type_oxidation_number
  Fe2+  2.0
  Fe3+  3.0
  O2-  -2.0
loop_
 _atom_site_type_symbol
 _atom_site_label
 _atom_site_symmetry_multiplicity
 _atom_site_fract_x
 _atom_site_fract_y
 _atom_site_fract_z
 _atom_site_occupancy
  Fe2+  Fe0  1  0.09926750  0.09812850  0.50000000  1
  Fe2+  Fe1  1  0.09926750  0.90187150  0.50000000  1
  Fe2+  Fe2  1  0.80723400  0.00000000  0.50000000  1
  Fe2+  Fe3  1  0.51082850  0.29915050  0.50000000  1
  Fe2+  Fe4  1  0.51082850  0.70084950  0.50000000  1
  Fe2+  Fe5  1  0.48821750  0.10255250  0.50000000  1
  Fe2+  Fe6  1  0.41047700  0.20377900  0.50000000  1
  Fe2+  Fe7  1  0.60287550  0.19382050  0.50000000  1
  Fe2+  Fe8  1  0.48821750  0.89744750  0.50000000  1
  Fe2+  Fe9  1  0.41047700  0.79622100  0.50000000  1
  Fe2+  Fe10  1  0.60287550  0.80617950  0.50000000  1
  Fe2+  Fe11  1  0.59926750  0.59812850  0.50000000  1
  Fe2+  Fe12  1  0.59926750  0.40187150  0.50000000  1
  Fe2+  Fe13  1  0.30723400  0.50000000  0.50000000  1
  Fe2+  Fe14  1  0.01082850  0.79915050  0.50000000  1
  Fe2+  Fe15  1  0.01082850  0.20084950  0.50000000  1
  Fe2+  Fe16  1  0.98821750  0.60255250  0.50000000  1
  Fe2+  Fe17  1  0.91047700  0.70377900  0.50000000  1
  Fe2+  Fe18  1  0.10287550  0.69382050  0.50000000  1
  Fe2+  Fe19  1  0.98821750  0.39744750  0.50000000  1
  Fe2+  Fe20  1  0.91047700  0.29622100  0.50000000  1
  Fe2+  Fe21  1  0.10287550  0.30617950  0.50000000  1
  Fe3+  Fe22  1  0.00275900  0.00000000  0.00000000  1
  Fe3+  Fe23  1  0.20475800  0.00000000  0.00000000  1
  Fe3+  Fe24  1  0.89747600  0.89945600  0.00000000  1
  Fe3+  Fe25  1  0.89747600  0.10054400  0.00000000  1
  Fe3+  Fe26  1  0.39162300  0.00000000  0.00000000  1
  Fe3+  Fe27  1  0.80356300  0.80465200  0.00000000  1
  Fe3+  Fe28  1  0.80356300  0.19534800  0.00000000  1
  Fe3+  Fe29  1  0.29268350  0.10891950  0.50000000  1
  Fe3+  Fe30  1  0.69035900  0.09261900  0.50000000  1
  Fe3+  Fe31  1  0.29268350  0.89108050  0.50000000  1
  Fe3+  Fe32  1  0.69035900  0.90738100  0.50000000  1
  Fe3+  Fe33  1  0.20775100  0.20675100  0.00000000  1
  Fe3+  Fe34  1  0.20775100  0.79324900  0.00000000  1
  Fe3+  Fe35  1  0.58725100  0.00000000  0.00000000  1
  Fe3+  Fe36  1  0.50275900  0.50000000  0.00000000  1
  Fe3+  Fe37  1  0.70475800  0.50000000  0.00000000  1
  Fe3+  Fe38  1  0.39747600  0.39945600  0.00000000  1
  Fe3+  Fe39  1  0.39747600  0.60054400  0.00000000  1
  Fe3+  Fe40  1  0.89162300  0.50000000  0.00000000  1
  Fe3+  Fe41  1  0.30356300  0.30465200  0.00000000  1
  Fe3+  Fe42  1  0.30356300  0.69534800  0.00000000  1
  Fe3+  Fe43  1  0.79268350  0.60891950  0.50000000  1
  Fe3+  Fe44  1  0.19035900  0.59261900  0.50000000  1
  Fe3+  Fe45  1  0.79268350  0.39108050  0.50000000  1
  Fe3+  Fe46  1  0.19035900  0.40738100  0.50000000  1
  Fe3+  Fe47  1  0.70775100  0.70675100  0.00000000  1
  Fe3+  Fe48  1  0.70775100  0.29324900  0.00000000  1
  Fe3+  Fe49  1  0.08725100  0.50000000  0.00000000  1
  O2-  O50  1  0.10496300  0.00000000  0.50000000  1
  O2-  O51  1  0.93852050  0.94916150  0.50000000  1
  O2-  O52  1  0.93852050  0.05083850  0.50000000  1
  O2-  O53  1  0.29820100  0.00000000  0.50000000  1
  O2-  O54  1  0.35480400  0.35115500  0.50000000  1
  O2-  O55  1  0.35480400  0.64884500  0.50000000  1
  O2-  O56  1  0.48748500  0.00000000  0.50000000  1
  O2-  O57  1  0.75411400  0.75674900  0.50000000  1
  O2-  O58  1  0.75411400  0.24325100  0.50000000  1
  O2-  O59  1  0.20614100  0.07681100  0.00000000  1
  O2-  O60  1  0.51385250  0.35950750  0.00000000  1
  O2-  O61  1  0.77873050  0.06527750  0.00000000  1
  O2-  O62  1  0.20614100  0.92318900  0.00000000  1
  O2-  O63  1  0.51385250  0.64049250  0.00000000  1
  O2-  O64  1  0.77873050  0.93472250  0.00000000  1
  O2-  O65  1  0.38835700  0.07794600  0.00000000  1
  O2-  O66  1  0.42118850  0.26655650  0.00000000  1
  O2-  O67  1  0.68932950  0.15563850  0.00000000  1
  O2-  O68  1  0.38835700  0.92205400  0.00000000  1
  O2-  O69  1  0.42118850  0.73344350  0.00000000  1
  O2-  O70  1  0.68932950  0.84436150  0.00000000  1
  O2-  O71  1  0.50111100  0.16718200  0.00000000  1
  O2-  O72  1  0.50111100  0.83281800  0.00000000  1
  O2-  O73  1  0.17107200  0.16180400  0.50000000  1
  O2-  O74  1  0.17107200  0.83819600  0.50000000  1
  O2-  O75  1  0.67303600  0.00000000  0.50000000  1
  O2-  O76  1  0.32079450  0.16630750  0.00000000  1
  O2-  O77  1  0.58780950  0.26020650  0.00000000  1
  O2-  O78  1  0.59207050  0.07665950  0.00000000  1
  O2-  O79  1  0.32079450  0.83369250  0.00000000  1
  O2-  O80  1  0.58780950  0.73979350  0.00000000  1
  O2-  O81  1  0.59207050  0.92334050  0.00000000  1
  O2-  O82  1  0.60496300  0.50000000  0.50000000  1
  O2-  O83  1  0.43852050  0.44916150  0.50000000  1
  O2-  O84  1  0.43852050  0.55083850  0.50000000  1
  O2-  O85  1  0.79820100  0.50000000  0.50000000  1
  O2-  O86  1  0.85480400  0.85115500  0.50000000  1
  O2-  O87  1  0.85480400  0.14884500  0.50000000  1
  O2-  O88  1  0.98748500  0.50000000  0.50000000  1
  O2-  O89  1  0.25411400  0.25674900  0.50000000  1
  O2-  O90  1  0.25411400  0.74325100  0.50000000  1
  O2-  O91  1  0.70614100  0.57681100  0.00000000  1
  O2-  O92  1  0.01385250  0.85950750  0.00000000  1
  O2-  O93  1  0.27873050  0.56527750  0.00000000  1
  O2-  O94  1  0.70614100  0.42318900  0.00000000  1
  O2-  O95  1  0.01385250  0.14049250  0.00000000  1
  O2-  O96  1  0.27873050  0.43472250  0.00000000  1
  O2-  O97  1  0.88835700  0.57794600  0.00000000  1
  O2-  O98  1  0.92118850  0.76655650  0.00000000  1
  O2-  O99  1  0.18932950  0.65563850  0.00000000  1
  O2-  O100  1  0.88835700  0.42205400  0.00000000  1
  O2-  O101  1  0.92118850  0.23344350  0.00000000  1
  O2-  O102  1  0.18932950  0.34436150  0.00000000  1
  O2-  O103  1  0.00111100  0.66718200  0.00000000  1
  O2-  O104  1  0.00111100  0.33281800  0.00000000  1
  O2-  O105  1  0.67107200  0.66180400  0.50000000  1
  O2-  O106  1  0.67107200  0.33819600  0.50000000  1
  O2-  O107  1  0.17303600  0.50000000  0.50000000  1
  O2-  O108  1  0.82079450  0.66630750  0.00000000  1
  O2-  O109  1  0.08780950  0.76020650  0.00000000  1
  O2-  O110  1  0.09207050  0.57665950  0.00000000  1
  O2-  O111  1  0.82079450  0.33369250  0.00000000  1
  O2-  O112  1  0.08780950  0.23979350  0.00000000  1
  O2-  O113  1  0.09207050  0.42334050  0.00000000  1
