# generated using pymatgen
data_Fe2O3
_symmetry_space_group_name_H-M   'P 1'
_cell_length_a   9.80278411
_cell_length_b   10.67025607
_cell_length_c   10.68395234
_cell_angle_alpha   91.44888926
_cell_angle_beta   101.08004958
_cell_angle_gamma   96.54510608
_symmetry_Int_Tables_number   1
_chemical_formula_structural   Fe2O3
_chemical_formula_sum   'Fe32 O48'
_cell_volume   1088.26652461
_cell_formula_units_Z   16
loop_
 _symmetry_equiv_pos_site_id
 _symmetry_equiv_pos_as_xyz
  1  'x, y, z'
loop_
 _atom_type_symbol
 _atom_type_oxidation_number
  Fe3+  3.0
  O2-  -2.0
loop_
 _atom_site_type_symbol
 _atom_site_label
 _atom_site_symmetry_multiplicity
 _atom_site_fract_x
 _atom_site_fract_y
 _atom_site_fract_z
 _atom_site_occupancy
  Fe3+  Fe0  1  0.79174961  0.04376516  0.17618877  1
  Fe3+  Fe1  1  0.44637530  0.82261734  0.55890547  1
  Fe3+  Fe2  1  0.79432135  0.79165312  0.67887522  1
  Fe3+  Fe3  1  0.15818371  0.42044107  0.95265287  1
  Fe3+  Fe4  1  0.37834127  0.33011021  0.44232702  1
  Fe3+  Fe5  1  0.69629382  0.87602090  0.41893458  1
  Fe3+  Fe6  1  0.05303687  0.77764403  0.56312746  1
  Fe3+  Fe7  1  0.69525100  0.05281331  0.69963451  1
  Fe3+  Fe8  1  0.43227746  0.59435898  0.10496730  1
  Fe3+  Fe9  1  0.66493162  0.76588254  0.13299584  1
  Fe3+  Fe10  1  0.76258093  0.22563587  0.88637967  1
  Fe3+  Fe11  1  0.35164563  0.90751015  0.24308390  1
  Fe3+  Fe12  1  0.31728950  0.68362795  0.81454660  1
  Fe3+  Fe13  1  0.34026176  0.32006487  0.16590569  1
  Fe3+  Fe14  1  0.16098181  0.07144971  0.07412522  1
  Fe3+  Fe15  1  0.88295806  0.64198297  0.27322691  1
  Fe3+  Fe16  1  0.15030274  0.62260959  0.14564859  1
  Fe3+  Fe17  1  0.55472120  0.58516705  0.65118663  1
  Fe3+  Fe18  1  0.75445993  0.55502602  0.48484339  1
  Fe3+  Fe19  1  0.21188382  0.01374873  0.42956579  1
  Fe3+  Fe20  1  0.70683620  0.35182500  0.64705364  1
  Fe3+  Fe21  1  0.41136284  0.14179943  0.69143913  1
  Fe3+  Fe22  1  0.60968200  0.15516786  0.33658471  1
  Fe3+  Fe23  1  0.17489034  0.35898996  0.63443069  1
  Fe3+  Fe24  1  0.98274300  0.07941363  0.63332793  1
  Fe3+  Fe25  1  0.85940888  0.87489670  0.99497370  1
  Fe3+  Fe26  1  0.11416944  0.84570752  0.84892644  1
  Fe3+  Fe27  1  0.44270860  0.40183401  0.87671544  1
  Fe3+  Fe28  1  0.65974980  0.39131361  0.18634387  1
  Fe3+  Fe29  1  0.87478591  0.30385726  0.44454036  1
  Fe3+  Fe30  1  0.47392836  0.99067789  0.96852426  1
  Fe3+  Fe31  1  0.94602830  0.53064069  0.78370694  1
  O2-  O32  1  0.56730197  0.49125186  0.79606668  1
  O2-  O33  1  0.86623621  0.14996801  0.75958168  1
  O2-  O34  1  0.40710114  0.69160373  0.67263583  1
  O2-  O35  1  0.32206949  0.53208905  0.91130463  1
  O2-  O36  1  0.32559570  0.29393424  0.74558946  1
  O2-  O37  1  0.08939236  0.41914400  0.77063101  1
  O2-  O38  1  0.87300009  0.70450392  0.44863630  1
  O2-  O39  1  0.30950228  0.86419475  0.42314733  1
  O2-  O40  1  0.39020722  0.08784148  0.84818155  1
  O2-  O41  1  0.52836275  0.69711457  0.99834322  1
  O2-  O42  1  0.34027914  0.16109436  0.50845856  1
  O2-  O43  1  0.09766905  0.96139172  0.55085806  1
  O2-  O44  1  0.07088656  0.63573454  0.28703656  1
  O2-  O45  1  0.47762989  0.39780801  0.06478309  1
  O2-  O46  1  0.10743732  0.69484016  0.73446004  1
  O2-  O47  1  0.54318792  0.98185756  0.33568851  1
  O2-  O48  1  0.32165089  0.73629770  0.16066062  1
  O2-  O49  1  0.94207802  0.03056103  0.08526430  1
  O2-  O50  1  0.31272503  0.84410964  0.88582821  1
  O2-  O51  1  0.03304454  0.23422101  0.53947730  1
  O2-  O52  1  0.80644094  0.17538941  0.30688816  1
  O2-  O53  1  0.68553445  0.04106495  0.87086445  1
  O2-  O54  1  0.04772346  0.55764895  0.97343735  1
  O2-  O55  1  0.70346681  0.25236426  0.05370528  1
  O2-  O56  1  0.50821632  0.98357596  0.64020220  1
  O2-  O57  1  0.77601068  0.60801698  0.68315276  1
  O2-  O58  1  0.26692643  0.48548679  0.14457632  1
  O2-  O59  1  0.27905751  0.43756022  0.52167535  1
  O2-  O60  1  0.84756025  0.72328653  0.10249991  1
  O2-  O61  1  0.62353916  0.13887997  0.09524326  1
  O2-  O62  1  0.10967395  0.00287019  0.90702000  1
  O2-  O63  1  0.36229570  0.01902296  0.10046190  1
  O2-  O64  1  0.79293432  0.95532952  0.59871978  1
  O2-  O65  1  0.81085581  0.46334847  0.32927103  1
  O2-  O66  1  0.91780207  0.81176047  0.84933844  1
  O2-  O67  1  0.60448625  0.73780355  0.53297921  1
  O2-  O68  1  0.24207005  0.27858693  0.28583506  1
  O2-  O69  1  0.66939404  0.90937014  0.03686564  1
  O2-  O70  1  0.19498563  0.25357690  0.02707952  1
  O2-  O71  1  0.82073368  0.38917145  0.82765341  1
  O2-  O72  1  0.18505974  0.99916285  0.24788436  1
  O2-  O73  1  0.60419256  0.22399574  0.72999790  1
  O2-  O74  1  0.61999568  0.62915236  0.23120592  1
  O2-  O75  1  0.87344560  0.43811962  0.57863148  1
  O2-  O76  1  0.50594496  0.29850317  0.29408491  1
  O2-  O77  1  0.77568342  0.88463416  0.26647265  1
  O2-  O78  1  0.70561976  0.22182100  0.50713405  1
  O2-  O79  1  0.57572112  0.45054503  0.52483925  1
