# generated using pymatgen
data_Fe2O3
_symmetry_space_group_name_H-M   'P 1'
_cell_length_a   10.03799652
_cell_length_b   10.32960206
_cell_length_c   10.33518529
_cell_angle_alpha   84.45694404
_cell_angle_beta   85.59534357
_cell_angle_gamma   83.42412518
_symmetry_Int_Tables_number   1
_chemical_formula_structural   Fe2O3
_chemical_formula_sum   'Fe32 O48'
_cell_volume   1057.26714732
_cell_formula_units_Z   16
loop_
 _symmetry_equiv_pos_site_id
 _symmetry_equiv_pos_as_xyz
  1  'x, y, z'
loop_
 _atom_type_symbol
 _atom_type_oxidation_number
  Fe3+  3.0
  O2-  -2.0
loop_
 _atom_site_type_symbol
 _atom_site_label
 _atom_site_symmetry_multiplicity
 _atom_site_fract_x
 _atom_site_fract_y
 _atom_site_fract_z
 _atom_site_occupancy
  Fe3+  Fe0  1  0.95016700  0.33879700  0.59738900  1
  Fe3+  Fe1  1  0.86469300  0.51952000  0.36661600  1
  Fe3+  Fe2  1  0.84558200  0.53679000  0.82623600  1
  Fe3+  Fe3  1  0.44762000  0.88672700  0.11684800  1
  Fe3+  Fe4  1  0.21389500  0.49777500  0.40763900  1
  Fe3+  Fe5  1  0.50281900  0.43376500  0.55083600  1
  Fe3+  Fe6  1  0.80509100  0.53387800  0.08519200  1
  Fe3+  Fe7  1  0.98497400  0.69272000  0.57024100  1
  Fe3+  Fe8  1  0.46762300  0.10438500  0.59488600  1
  Fe3+  Fe9  1  0.73100000  0.16382000  0.65891400  1
  Fe3+  Fe10  1  0.30506900  0.89630900  0.73768000  1
  Fe3+  Fe11  1  0.74492600  0.29709800  0.36543900  1
  Fe3+  Fe12  1  0.72037900  0.77281500  0.33894000  1
  Fe3+  Fe13  1  0.42192700  0.24572000  0.29110400  1
  Fe3+  Fe14  1  0.16022200  0.07509300  0.14797700  1
  Fe3+  Fe15  1  0.68355900  0.03904000  0.92006400  1
  Fe3+  Fe16  1  0.71008100  0.05670000  0.23045400  1
  Fe3+  Fe17  1  0.68828500  0.80757800  0.62019300  1
  Fe3+  Fe18  1  0.64784700  0.36889000  0.85847000  1
  Fe3+  Fe19  1  0.89505000  0.23975600  0.09479700  1
  Fe3+  Fe20  1  0.35200100  0.57813800  0.78292900  1
  Fe3+  Fe21  1  0.17940400  0.85193300  0.42973600  1
  Fe3+  Fe22  1  0.16068200  0.42309000  0.72800500  1
  Fe3+  Fe23  1  0.29627800  0.62661000  0.14538300  1
  Fe3+  Fe24  1  0.09345700  0.69572300  0.93157600  1
  Fe3+  Fe25  1  0.98447100  0.97912600  0.88849900  1
  Fe3+  Fe26  1  0.95480500  0.83326400  0.14458500  1
  Fe3+  Fe27  1  0.44418800  0.90958100  0.40195600  1
  Fe3+  Fe28  1  0.37385500  0.17159500  0.91156900  1
  Fe3+  Fe29  1  0.21708300  0.38258800  0.06094800  1
  Fe3+  Fe30  1  0.93950800  0.03021100  0.41590300  1
  Fe3+  Fe31  1  0.57676300  0.72066700  0.90437800  1
  O2-  O32  1  0.57810800  0.78619400  0.47220200  1
  O2-  O33  1  0.14317000  0.87672200  0.83693100  1
  O2-  O34  1  0.82596600  0.68278200  0.48415300  1
  O2-  O35  1  0.58289400  0.92262400  0.23981300  1
  O2-  O36  1  0.32970300  0.85157800  0.28349200  1
  O2-  O37  1  0.44445200  0.71352700  0.06825200  1
  O2-  O38  1  0.82529600  0.35554200  0.95190200  1
  O2-  O39  1  0.83665400  0.39507900  0.21495900  1
  O2-  O40  1  0.11541500  0.01907400  0.32964300  1
  O2-  O41  1  0.63935300  0.00399200  0.62520800  1
  O2-  O42  1  0.19647400  0.48568700  0.21302400  1
  O2-  O43  1  0.96172300  0.56079700  0.96362900  1
  O2-  O44  1  0.76009700  0.10579100  0.05621300  1
  O2-  O45  1  0.40951700  0.09629900  0.42202900  1
  O2-  O46  1  0.81330600  0.66965800  0.20535500  1
  O2-  O47  1  0.67249600  0.45560300  0.44004500  1
  O2-  O48  1  0.61160700  0.21811100  0.28213500  1
  O2-  O49  1  0.01638800  0.01608300  0.06504700  1
  O2-  O50  1  0.84687900  0.90662100  0.29941900  1
  O2-  O51  1  0.27640400  0.56145800  0.97838000  1
  O2-  O52  1  0.26198500  0.33531300  0.87655400  1
  O2-  O53  1  0.99984600  0.88356600  0.53940100  1
  O2-  O54  1  0.58371400  0.89581600  0.96158300  1
  O2-  O55  1  0.36298300  0.06767700  0.75671900  1
  O2-  O56  1  0.12965000  0.67478600  0.44151900  1
  O2-  O57  1  0.74311200  0.70515000  0.77830900  1
  O2-  O58  1  0.38644500  0.38228500  0.39947200  1
  O2-  O59  1  0.36352500  0.60383700  0.30940500  1
  O2-  O60  1  0.83343400  0.05673900  0.79448600  1
  O2-  O61  1  0.09957300  0.26819600  0.68377600  1
  O2-  O62  1  0.12683500  0.74238400  0.11461700  1
  O2-  O63  1  0.86241500  0.15012200  0.27521800  1
  O2-  O64  1  0.97112800  0.51700200  0.67822900  1
  O2-  O65  1  0.56555900  0.19981400  0.87555500  1
  O2-  O66  1  0.91183400  0.82356000  0.96803700  1
  O2-  O67  1  0.52200400  0.47517300  0.74388100  1
  O2-  O68  1  0.36654900  0.26095200  0.11632900  1
  O2-  O69  1  0.86293500  0.19041000  0.51271300  1
  O2-  O70  1  0.32268500  0.02903100  0.04184700  1
  O2-  O71  1  0.42933800  0.74513200  0.78715100  1
  O2-  O72  1  0.08675200  0.25351200  0.10258100  1
  O2-  O73  1  0.30520300  0.88392900  0.55332800  1
  O2-  O74  1  0.56207800  0.25188400  0.58714800  1
  O2-  O75  1  0.65987900  0.54490600  0.96300200  1
  O2-  O76  1  0.03271100  0.42810500  0.44009100  1
  O2-  O77  1  0.77534600  0.33791800  0.70979300  1
  O2-  O78  1  0.16022300  0.62669200  0.76483600  1
  O2-  O79  1  0.30901300  0.48444800  0.60807600  1
