# generated using pymatgen
data_Fe2O3
_symmetry_space_group_name_H-M   'P 1'
_cell_length_a   8.45637823
_cell_length_b   8.47629187
_cell_length_c   25.29079095
_cell_angle_alpha   89.93234609
_cell_angle_beta   89.99913364
_cell_angle_gamma   89.99125302
_symmetry_Int_Tables_number   1
_chemical_formula_structural   Fe2O3
_chemical_formula_sum   'Fe64 O96'
_cell_volume   1812.81049128
_cell_formula_units_Z   32
loop_
 _symmetry_equiv_pos_site_id
 _symmetry_equiv_pos_as_xyz
  1  'x, y, z'
loop_
 _atom_type_symbol
 _atom_type_oxidation_number
  Fe3+  3.0
  O2-  -2.0
loop_
 _atom_site_type_symbol
 _atom_site_label
 _atom_site_symmetry_multiplicity
 _atom_site_fract_x
 _atom_site_fract_y
 _atom_site_fract_z
 _atom_site_occupancy
  Fe3+  Fe0  1  0.61655324  0.01103145  0.20756454  1
  Fe3+  Fe1  1  0.12516936  0.99941368  0.37474919  1
  Fe3+  Fe2  1  0.62068421  0.99777014  0.54029110  1
  Fe3+  Fe3  1  0.62446942  0.99008754  0.87288784  1
  Fe3+  Fe4  1  0.88579157  0.99857066  0.12155236  1
  Fe3+  Fe5  1  0.86356820  0.99142851  0.45862825  1
  Fe3+  Fe6  1  0.87417078  0.99612557  0.79125473  1
  Fe3+  Fe7  1  0.75159105  0.87607164  0.33172754  1
  Fe3+  Fe8  1  0.74218470  0.87107451  0.66761488  1
  Fe3+  Fe9  1  0.74944977  0.88033183  0.99954958  1
  Fe3+  Fe10  1  0.25094784  0.87476473  0.16843701  1
  Fe3+  Fe11  1  0.25242742  0.86967010  0.50119083  1
  Fe3+  Fe12  1  0.24052497  0.87614505  0.83452623  1
  Fe3+  Fe13  1  0.36512026  0.75691051  0.04112654  1
  Fe3+  Fe14  1  0.38368594  0.74944211  0.37675266  1
  Fe3+  Fe15  1  0.37597141  0.76117637  0.71128391  1
  Fe3+  Fe16  1  0.62524143  0.74805436  0.12420415  1
  Fe3+  Fe17  1  0.12619004  0.74807308  0.29201381  1
  Fe3+  Fe18  1  0.12259010  0.75804629  0.62684351  1
  Fe3+  Fe19  1  0.12008946  0.75160418  0.96043961  1
  Fe3+  Fe20  1  0.87458323  0.74322134  0.21146227  1
  Fe3+  Fe21  1  0.87212848  0.74813429  0.54118769  1
  Fe3+  Fe22  1  0.86820316  0.74406387  0.87528498  1
  Fe3+  Fe23  1  0.49142083  0.62353233  0.24949289  1
  Fe3+  Fe24  1  0.49926004  0.63518896  0.58289297  1
  Fe3+  Fe25  1  0.50077755  0.62032750  0.92004432  1
  Fe3+  Fe26  1  0.99739168  0.61273956  0.08204449  1
  Fe3+  Fe27  1  0.99990745  0.62748350  0.41816286  1
  Fe3+  Fe28  1  0.00021936  0.62798270  0.75146658  1
  Fe3+  Fe29  1  0.62682636  0.49739955  0.04117765  1
  Fe3+  Fe30  1  0.63154877  0.50666690  0.37482939  1
  Fe3+  Fe31  1  0.62558515  0.50172902  0.70818323  1
  Fe3+  Fe32  1  0.87385104  0.50116265  0.62515139  1
  Fe3+  Fe33  1  0.37704458  0.49709669  0.12491903  1
  Fe3+  Fe34  1  0.38444179  0.50059395  0.46225481  1
  Fe3+  Fe35  1  0.38177416  0.51009480  0.79202409  1
  Fe3+  Fe36  1  0.12927432  0.49005562  0.21185819  1
  Fe3+  Fe37  1  0.12508651  0.50158629  0.54169023  1
  Fe3+  Fe38  1  0.11438345  0.49562281  0.87815075  1
  Fe3+  Fe39  1  0.25008356  0.37566077  0.00193157  1
  Fe3+  Fe40  1  0.25675336  0.37385517  0.33332882  1
  Fe3+  Fe41  1  0.25155127  0.37960911  0.66652085  1
  Fe3+  Fe42  1  0.75625331  0.37550333  0.16579724  1
  Fe3+  Fe43  1  0.75353674  0.37197153  0.49882581  1
  Fe3+  Fe44  1  0.74729928  0.37383877  0.83221291  1
  Fe3+  Fe45  1  0.61984423  0.25720670  0.28935742  1
  Fe3+  Fe46  1  0.61568836  0.25342847  0.62140930  1
  Fe3+  Fe47  1  0.62878455  0.25135817  0.95911524  1
  Fe3+  Fe48  1  0.87515884  0.25160118  0.03995922  1
  Fe3+  Fe49  1  0.87872740  0.26016494  0.37225587  1
  Fe3+  Fe50  1  0.87845768  0.23762222  0.70823927  1
  Fe3+  Fe51  1  0.37621910  0.25040652  0.87663274  1
  Fe3+  Fe52  1  0.13243654  0.24715554  0.12405010  1
  Fe3+  Fe53  1  0.13038547  0.24906436  0.46169622  1
  Fe3+  Fe54  1  0.12747456  0.24260795  0.78951258  1
  Fe3+  Fe55  1  0.49678719  0.12955810  0.08096353  1
  Fe3+  Fe56  1  0.49954605  0.13062420  0.41717146  1
  Fe3+  Fe57  1  0.50781825  0.12602528  0.74897250  1
  Fe3+  Fe58  1  0.99815818  0.12092947  0.24829007  1
  Fe3+  Fe59  1  0.99700650  0.12666852  0.58204981  1
  Fe3+  Fe60  1  0.99898836  0.11874977  0.91954518  1
  Fe3+  Fe61  1  0.37294865  0.00089709  0.29142063  1
  Fe3+  Fe62  1  0.36682731  0.00978277  0.62385380  1
  Fe3+  Fe63  1  0.37461819  0.00232452  0.95865660  1
  O2-  O64  1  0.62571077  0.99242151  0.12775862  1
  O2-  O65  1  0.63047196  0.01356657  0.46375424  1
  O2-  O66  1  0.64144332  0.01497364  0.79632426  1
  O2-  O67  1  0.39037532  0.98868546  0.03533562  1
  O2-  O68  1  0.36777640  0.99124355  0.37131439  1
  O2-  O69  1  0.39886600  0.98974726  0.70432005  1
  O2-  O70  1  0.13859058  0.98752138  0.29394951  1
  O2-  O71  1  0.13629756  0.99177636  0.61824449  1
  O2-  O72  1  0.14931517  0.99392617  0.95393765  1
  O2-  O73  1  0.86216404  0.98785838  0.20371155  1
  O2-  O74  1  0.86660406  0.98473855  0.53946979  1
  O2-  O75  1  0.86597599  0.99281930  0.87065017  1
  O2-  O76  1  0.36072647  0.76465790  0.29438829  1
  O2-  O77  1  0.36368490  0.76022928  0.62845230  1
  O2-  O78  1  0.36822172  0.76528416  0.96073114  1
  O2-  O79  1  0.63407743  0.75529187  0.20540639  1
  O2-  O80  1  0.64692392  0.75719842  0.54618906  1
  O2-  O81  1  0.63567399  0.75773129  0.88185844  1
  O2-  O82  1  0.86727616  0.75933943  0.12558578  1
  O2-  O83  1  0.88747000  0.76065832  0.46454016  1
  O2-  O84  1  0.89120881  0.76939940  0.79586447  1
  O2-  O85  1  0.13128557  0.73171856  0.03656871  1
  O2-  O86  1  0.13166986  0.75782540  0.36991942  1
  O2-  O87  1  0.13820259  0.72997747  0.70365002  1
  O2-  O88  1  0.89635236  0.76544057  0.28888152  1
  O2-  O89  1  0.88225519  0.74271026  0.62112263  1
  O2-  O90  1  0.89075487  0.77159416  0.95544794  1
  O2-  O91  1  0.61885289  0.73397992  0.04373378  1
  O2-  O92  1  0.61650679  0.73950872  0.36939152  1
  O2-  O93  1  0.61086421  0.72841740  0.70326157  1
  O2-  O94  1  0.38199161  0.73898636  0.12154473  1
  O2-  O95  1  0.35894835  0.73835534  0.45317709  1
  O2-  O96  1  0.35583533  0.74345856  0.78870300  1
  O2-  O97  1  0.11692811  0.74431703  0.21328981  1
  O2-  O98  1  0.10890236  0.73657887  0.54437644  1
  O2-  O99  1  0.11698751  0.73936228  0.88119498  1
  O2-  O100  1  0.39133450  0.50819324  0.04617895  1
  O2-  O101  1  0.38203436  0.51023326  0.37809568  1
  O2-  O102  1  0.38993949  0.50774969  0.71047137  1
  O2-  O103  1  0.14837413  0.51655953  0.28829614  1
  O2-  O104  1  0.11483925  0.50867981  0.61957035  1
  O2-  O105  1  0.14915323  0.50874931  0.95389858  1
  O2-  O106  1  0.89006218  0.51525488  0.20215875  1
  O2-  O107  1  0.88446169  0.51403768  0.54374420  1
  O2-  O108  1  0.88219759  0.51055519  0.86994210  1
  O2-  O109  1  0.61220519  0.50455566  0.12099684  1
  O2-  O110  1  0.61327818  0.48284466  0.45463455  1
  O2-  O111  1  0.61380996  0.48488876  0.78507400  1
  O2-  O112  1  0.36536615  0.51297762  0.20074867  1
  O2-  O113  1  0.35713657  0.51924316  0.53954884  1
  O2-  O114  1  0.37286724  0.49090064  0.87152951  1
  O2-  O115  1  0.63187319  0.49251184  0.62799339  1
  O2-  O116  1  0.60429372  0.48719285  0.29487347  1
  O2-  O117  1  0.61207533  0.48076870  0.96486725  1
  O2-  O118  1  0.85382064  0.48172790  0.04607112  1
  O2-  O119  1  0.86554506  0.49222346  0.37961286  1
  O2-  O120  1  0.85990832  0.49584477  0.70590938  1
  O2-  O121  1  0.14241570  0.49582462  0.12771028  1
  O2-  O122  1  0.13088110  0.49075380  0.46262507  1
  O2-  O123  1  0.13542463  0.48872084  0.79577109  1
  O2-  O124  1  0.63552775  0.26245276  0.03770797  1
  O2-  O125  1  0.63678740  0.25639182  0.37157695  1
  O2-  O126  1  0.63622284  0.26695113  0.70430383  1
  O2-  O127  1  0.36565208  0.26675874  0.11981080  1
  O2-  O128  1  0.35952973  0.26276328  0.45317346  1
  O2-  O129  1  0.36646206  0.25374153  0.79500905  1
  O2-  O130  1  0.10897355  0.26076752  0.20400451  1
  O2-  O131  1  0.10946691  0.27077611  0.53913134  1
  O2-  O132  1  0.13356031  0.25873072  0.87412625  1
  O2-  O133  1  0.86745497  0.25917706  0.62856889  1
  O2-  O134  1  0.86631578  0.22951464  0.29596368  1
  O2-  O135  1  0.85837910  0.23389851  0.96346721  1
  O2-  O136  1  0.10480278  0.26843678  0.04499203  1
  O2-  O137  1  0.11690882  0.24199635  0.37641118  1
  O2-  O138  1  0.11148916  0.26710314  0.71147709  1
  O2-  O139  1  0.38324005  0.23920812  0.62952708  1
  O2-  O140  1  0.38815646  0.23738950  0.95709859  1
  O2-  O141  1  0.38469049  0.22769920  0.29644759  1
  O2-  O142  1  0.64106549  0.24180434  0.21143953  1
  O2-  O143  1  0.64407593  0.24072560  0.54573667  1
  O2-  O144  1  0.61774788  0.24453970  0.88064603  1
  O2-  O145  1  0.88285338  0.24143427  0.11936723  1
  O2-  O146  1  0.88687177  0.23623726  0.45447620  1
  O2-  O147  1  0.88276223  0.23603811  0.78929978  1
  O2-  O148  1  0.60890101  0.00687783  0.28933221  1
  O2-  O149  1  0.61829465  0.00898597  0.61998362  1
  O2-  O150  1  0.61134984  0.01498825  0.95536975  1
  O2-  O151  1  0.85689202  0.01940195  0.04529099  1
  O2-  O152  1  0.88373793  0.00386312  0.37909095  1
  O2-  O153  1  0.85633418  0.00539684  0.71372288  1
  O2-  O154  1  0.11916567  0.01061571  0.12894937  1
  O2-  O155  1  0.12001143  0.00852589  0.45602416  1
  O2-  O156  1  0.10665324  0.01286831  0.79639576  1
  O2-  O157  1  0.38500446  0.98644480  0.21479064  1
  O2-  O158  1  0.39067795  0.97995695  0.54536636  1
  O2-  O159  1  0.38400915  0.00815813  0.87886354  1
