# generated using pymatgen
data_Fe2O3
_symmetry_space_group_name_H-M   'P 1'
_cell_length_a   10.23295030
_cell_length_b   10.26627293
_cell_length_c   10.38777504
_cell_angle_alpha   86.87435543
_cell_angle_beta   89.55444695
_cell_angle_gamma   87.33796388
_symmetry_Int_Tables_number   1
_chemical_formula_structural   Fe2O3
_chemical_formula_sum   'Fe32 O48'
_cell_volume   1088.46567566
_cell_formula_units_Z   16
loop_
 _symmetry_equiv_pos_site_id
 _symmetry_equiv_pos_as_xyz
  1  'x, y, z'
loop_
 _atom_type_symbol
 _atom_type_oxidation_number
  Fe3+  3.0
  O2-  -2.0
loop_
 _atom_site_type_symbol
 _atom_site_label
 _atom_site_symmetry_multiplicity
 _atom_site_fract_x
 _atom_site_fract_y
 _atom_site_fract_z
 _atom_site_occupancy
  Fe3+  Fe0  1  0.75109100  0.53673400  0.91717200  1
  Fe3+  Fe1  1  0.06258900  0.42375100  0.42793400  1
  Fe3+  Fe2  1  0.77189200  0.79391200  0.20151600  1
  Fe3+  Fe3  1  0.06701900  0.90413300  0.56554100  1
  Fe3+  Fe4  1  0.23150700  0.36476400  0.80770800  1
  Fe3+  Fe5  1  0.38708800  0.45567100  0.54591300  1
  Fe3+  Fe6  1  0.05788900  0.47355800  0.06298300  1
  Fe3+  Fe7  1  0.51077300  0.63898300  0.02906500  1
  Fe3+  Fe8  1  0.54790500  0.15438900  0.46147200  1
  Fe3+  Fe9  1  0.52622200  0.38510000  0.18446800  1
  Fe3+  Fe10  1  0.00286600  0.90531300  0.87973200  1
  Fe3+  Fe11  1  0.06784300  0.11838500  0.34899200  1
  Fe3+  Fe12  1  0.26509800  0.63794900  0.26725500  1
  Fe3+  Fe13  1  0.24291700  0.16739400  0.57918100  1
  Fe3+  Fe14  1  0.54231800  0.34698300  0.84923000  1
  Fe3+  Fe15  1  0.85244600  0.34484500  0.15154300  1
  Fe3+  Fe16  1  0.21581300  0.99286200  0.14957500  1
  Fe3+  Fe17  1  0.54653000  0.65405900  0.32347500  1
  Fe3+  Fe18  1  0.71720700  0.41225700  0.42713000  1
  Fe3+  Fe19  1  0.31999400  0.09202200  0.89992000  1
  Fe3+  Fe20  1  0.80748700  0.77177100  0.74465600  1
  Fe3+  Fe21  1  0.58829400  0.99634500  0.75943100  1
  Fe3+  Fe22  1  0.78730800  0.17439200  0.86407500  1
  Fe3+  Fe23  1  0.10515700  0.63631200  0.68181600  1
  Fe3+  Fe24  1  0.21418900  0.75263400  0.99162900  1
  Fe3+  Fe25  1  0.87071100  0.02611000  0.13441300  1
  Fe3+  Fe26  1  0.47313900  0.65407900  0.75379300  1
  Fe3+  Fe27  1  0.36837200  0.85639900  0.50834400  1
  Fe3+  Fe28  1  0.82864100  0.09808700  0.58994200  1
  Fe3+  Fe29  1  0.92913800  0.40247700  0.75095300  1
  Fe3+  Fe30  1  0.51503400  0.03971100  0.21925200  1
  Fe3+  Fe31  1  0.87038800  0.68616800  0.43729300  1
  O2-  O32  1  0.38458200  0.72787000  0.37890400  1
  O2-  O33  1  0.88849000  0.88162700  0.03284800  1
  O2-  O34  1  0.54192700  0.49006700  0.43694300  1
  O2-  O35  1  0.25630700  0.81000000  0.16496000  1
  O2-  O36  1  0.49280300  0.78794300  0.63139700  1
  O2-  O37  1  0.19695200  0.75760800  0.57408400  1
  O2-  O38  1  0.70206400  0.40186300  0.24232900  1
  O2-  O39  1  0.02143400  0.36456400  0.22190500  1
  O2-  O40  1  0.60362300  0.16452200  0.84480500  1
  O2-  O41  1  0.47279800  0.99465400  0.39425400  1
  O2-  O42  1  0.27329700  0.51648700  0.69498300  1
  O2-  O43  1  0.17331000  0.59621300  0.10697200  1
  O2-  O44  1  0.84919300  0.19216100  0.04357500  1
  O2-  O45  1  0.23264800  0.99778900  0.52405600  1
  O2-  O46  1  0.22985400  0.50373000  0.40527600  1
  O2-  O47  1  0.10415000  0.24414700  0.47001100  1
  O2-  O48  1  0.21832700  0.13834900  0.24753900  1
  O2-  O49  1  0.16572500  0.96745800  0.96485300  1
  O2-  O50  1  0.43025800  0.55281300  0.19543300  1
  O2-  O51  1  0.09018200  0.73416700  0.85273000  1
  O2-  O52  1  0.88786400  0.22013700  0.71186500  1
  O2-  O53  1  0.41533200  0.97643800  0.80493800  1
  O2-  O54  1  0.93558100  0.74843900  0.28024200  1
  O2-  O55  1  0.72422100  0.23598500  0.47591800  1
  O2-  O56  1  0.63013600  0.68252300  0.86713900  1
  O2-  O57  1  0.69727300  0.73290200  0.38413000  1
  O2-  O58  1  0.40201700  0.26221700  0.54278100  1
  O2-  O59  1  0.04405800  0.46560200  0.61831800  1
  O2-  O60  1  0.70260000  0.98131500  0.20305200  1
  O2-  O61  1  0.87076900  0.51096600  0.05796300  1
  O2-  O62  1  0.37091300  0.68208700  0.91297200  1
  O2-  O63  1  0.37034700  0.28985200  0.91421900  1
  O2-  O64  1  0.61698100  0.71543800  0.14767800  1
  O2-  O65  1  0.94624500  0.03005700  0.46010400  1
  O2-  O66  1  0.03712500  0.00522300  0.21834200  1
  O2-  O67  1  0.87222200  0.58576300  0.78295800  1
  O2-  O68  1  0.00830100  0.98365900  0.71419700  1
  O2-  O69  1  0.38668700  0.03551900  0.08329900  1
  O2-  O70  1  0.21219000  0.18968100  0.75598900  1
  O2-  O71  1  0.93641100  0.75688100  0.59128500  1
  O2-  O72  1  0.06960900  0.39964100  0.89492800  1
  O2-  O73  1  0.64528200  0.03860300  0.58828500  1
  O2-  O74  1  0.51553900  0.21908900  0.26771800  1
  O2-  O75  1  0.87834600  0.49614400  0.42913200  1
  O2-  O76  1  0.75094600  0.36897700  0.84571600  1
  O2-  O77  1  0.57071800  0.45161100  0.00663600  1
  O2-  O78  1  0.77122600  0.95821000  0.80125400  1
  O2-  O79  1  0.51657600  0.47321800  0.70641700  1
