# generated using pymatgen
data_Fe2O3
_symmetry_space_group_name_H-M   'P 1'
_cell_length_a   8.09084063
_cell_length_b   8.09470828
_cell_length_c   8.11611669
_cell_angle_alpha   108.90193850
_cell_angle_beta   109.95720755
_cell_angle_gamma   109.58068467
_symmetry_Int_Tables_number   1
_chemical_formula_structural   Fe2O3
_chemical_formula_sum   'Fe16 O24'
_cell_volume   409.02754945
_cell_formula_units_Z   8
loop_
 _symmetry_equiv_pos_site_id
 _symmetry_equiv_pos_as_xyz
  1  'x, y, z'
loop_
 _atom_type_symbol
 _atom_type_oxidation_number
  Fe3+  3.0
  O2-  -2.0
loop_
 _atom_site_type_symbol
 _atom_site_label
 _atom_site_symmetry_multiplicity
 _atom_site_fract_x
 _atom_site_fract_y
 _atom_site_fract_z
 _atom_site_occupancy
  Fe3+  Fe0  1  0.22118835  0.75389720  0.97167969  1
  Fe3+  Fe1  1  0.97003953  0.21943019  0.75193281  1
  Fe3+  Fe2  1  0.78486324  0.24903071  0.03264030  1
  Fe3+  Fe3  1  0.25060458  0.02730716  0.77927155  1
  Fe3+  Fe4  1  0.71601627  0.75290668  0.46632881  1
  Fe3+  Fe5  1  0.75266359  0.97119055  0.21930420  1
  Fe3+  Fe6  1  0.25123209  0.53085331  0.28398320  1
  Fe3+  Fe7  1  0.75095331  0.46993545  0.72074011  1
  Fe3+  Fe8  1  0.28138534  0.25077422  0.53294575  1
  Fe3+  Fe9  1  0.53297865  0.28671142  0.24850104  1
  Fe3+  Fe10  1  0.46590514  0.71481237  0.74885477  1
  Fe3+  Fe11  1  0.03306360  0.78388809  0.25216403  1
  Fe3+  Fe12  1  0.99458914  0.49879054  0.50044933  1
  Fe3+  Fe13  1  0.99895903  0.99818948  0.99686001  1
  Fe3+  Fe14  1  0.50061491  0.00220419  0.49871829  1
  Fe3+  Fe15  1  0.49907048  0.49818310  0.99783535  1
  O2-  O16  1  0.27840388  0.03325858  0.04910940  1
  O2-  O17  1  0.96313276  0.95136282  0.73069454  1
  O2-  O18  1  0.55245312  0.51318978  0.77721146  1
  O2-  O19  1  0.46095076  0.73108588  0.00891247  1
  O2-  O20  1  0.05021211  0.26855561  0.03863393  1
  O2-  O21  1  0.76246085  0.22640835  0.27580952  1
  O2-  O22  1  0.73275165  0.01282094  0.46237361  1
  O2-  O23  1  0.72332798  0.23221109  0.77151573  1
  O2-  O24  1  0.95093889  0.72587896  0.96445237  1
  O2-  O25  1  0.77648595  0.55095439  0.50919310  1
  O2-  O26  1  0.51365988  0.77026608  0.54769142  1
  O2-  O27  1  0.77609600  0.72925312  0.24379998  1
  O2-  O28  1  0.53701874  0.26516019  0.98869990  1
  O2-  O29  1  0.22250562  0.27230517  0.75785755  1
  O2-  O30  1  0.03345111  0.04805286  0.27433821  1
  O2-  O31  1  0.26273218  0.98831120  0.53922870  1
  O2-  O32  1  0.27724117  0.76839554  0.23010432  1
  O2-  O33  1  0.22512786  0.45041643  0.48454985  1
  O2-  O34  1  0.49161149  0.23366037  0.45663825  1
  O2-  O35  1  0.98638422  0.53334305  0.25577902  1
  O2-  O36  1  0.23768558  0.77259227  0.72263734  1
  O2-  O37  1  0.01116286  0.46397235  0.73513747  1
  O2-  O38  1  0.72194624  0.96400226  0.95204552  1
  O2-  O39  1  0.44812685  0.48643208  0.22137112  1
