# generated using pymatgen
data_Fe2O3
_symmetry_space_group_name_H-M   'P 1'
_cell_length_a   5.21533700
_cell_length_b   8.95247400
_cell_length_c   9.59551900
_cell_angle_alpha   90.00000000
_cell_angle_beta   90.00000000
_cell_angle_gamma   90.00000000
_symmetry_Int_Tables_number   1
_chemical_formula_structural   Fe2O3
_chemical_formula_sum   'Fe16 O24'
_cell_volume   448.01640273
_cell_formula_units_Z   8
loop_
 _symmetry_equiv_pos_site_id
 _symmetry_equiv_pos_as_xyz
  1  'x, y, z'
loop_
 _atom_type_symbol
 _atom_type_oxidation_number
  Fe3+  3.0
  O2-  -2.0
loop_
 _atom_site_type_symbol
 _atom_site_label
 _atom_site_symmetry_multiplicity
 _atom_site_fract_x
 _atom_site_fract_y
 _atom_site_fract_z
 _atom_site_occupancy
  Fe3+  Fe0  1  0.68771100  0.34032700  0.87180800  1
  Fe3+  Fe1  1  0.31228900  0.65967300  0.37180800  1
  Fe3+  Fe2  1  0.18771100  0.15967300  0.87180800  1
  Fe3+  Fe3  1  0.81228900  0.84032700  0.37180800  1
  Fe3+  Fe4  1  0.67770600  0.65106900  0.06188200  1
  Fe3+  Fe5  1  0.17770600  0.84893100  0.06188200  1
  Fe3+  Fe6  1  0.82229400  0.15106900  0.56188200  1
  Fe3+  Fe7  1  0.32229400  0.34893100  0.56188200  1
  Fe3+  Fe8  1  0.69141000  0.65270700  0.64497200  1
  Fe3+  Fe9  1  0.80859000  0.15270700  0.14497200  1
  Fe3+  Fe10  1  0.30859000  0.34729300  0.14497200  1
  Fe3+  Fe11  1  0.19141000  0.84729300  0.64497200  1
  Fe3+  Fe12  1  0.17561800  0.53155400  0.85944700  1
  Fe3+  Fe13  1  0.67561800  0.96844600  0.85944700  1
  Fe3+  Fe14  1  0.82438200  0.46844600  0.35944700  1
  Fe3+  Fe15  1  0.32438200  0.03155400  0.35944700  1
  O2-  O16  1  0.83833500  0.15897900  0.76255800  1
  O2-  O17  1  0.33833500  0.34102100  0.76255800  1
  O2-  O18  1  0.16166500  0.84102100  0.26255800  1
  O2-  O19  1  0.66166500  0.65897900  0.26255800  1
  O2-  O20  1  0.65379400  0.33060400  0.23401800  1
  O2-  O21  1  0.34620600  0.66939600  0.73401800  1
  O2-  O22  1  0.15379400  0.16939600  0.23401800  1
  O2-  O23  1  0.84620600  0.83060400  0.73401800  1
  O2-  O24  1  0.15917000  0.50023900  0.26640300  1
  O2-  O25  1  0.34083000  0.00023900  0.76640300  1
  O2-  O26  1  0.65917000  0.99976100  0.26640300  1
  O2-  O27  1  0.84083000  0.49976100  0.76640300  1
  O2-  O28  1  0.98217800  0.67669100  0.49178800  1
  O2-  O29  1  0.01782200  0.32330900  0.99178800  1
  O2-  O30  1  0.48217800  0.82330900  0.49178800  1
  O2-  O31  1  0.51782200  0.17669100  0.99178800  1
  O2-  O32  1  0.47838200  0.16836600  0.49856800  1
  O2-  O33  1  0.02161800  0.66836600  0.99856800  1
  O2-  O34  1  0.97838200  0.33163400  0.49856800  1
  O2-  O35  1  0.52161800  0.83163400  0.99856800  1
  O2-  O36  1  0.02521400  0.98836600  0.49605500  1
  O2-  O37  1  0.97478600  0.01163400  0.99605500  1
  O2-  O38  1  0.52521400  0.51163400  0.49605500  1
  O2-  O39  1  0.47478600  0.48836600  0.99605500  1
