# generated using pymatgen
data_Fe2O3
_symmetry_space_group_name_H-M   'P 1'
_cell_length_a   5.16483500
_cell_length_b   5.40720000
_cell_length_c   15.05091200
_cell_angle_alpha   90.00000000
_cell_angle_beta   90.00000000
_cell_angle_gamma   90.00000000
_symmetry_Int_Tables_number   1
_chemical_formula_structural   Fe2O3
_chemical_formula_sum   'Fe16 O24'
_cell_volume   420.33127166
_cell_formula_units_Z   8
loop_
 _symmetry_equiv_pos_site_id
 _symmetry_equiv_pos_as_xyz
  1  'x, y, z'
loop_
 _atom_type_symbol
 _atom_type_oxidation_number
  Fe3+  3.0
  O2-  -2.0
loop_
 _atom_site_type_symbol
 _atom_site_label
 _atom_site_symmetry_multiplicity
 _atom_site_fract_x
 _atom_site_fract_y
 _atom_site_fract_z
 _atom_site_occupancy
  Fe3+  Fe0  1  0.99871500  0.20084400  0.07142600  1
  Fe3+  Fe1  1  0.99880500  0.76658300  0.18062800  1
  Fe3+  Fe2  1  0.99871500  0.29915600  0.57142600  1
  Fe3+  Fe3  1  0.99880500  0.73341700  0.68062800  1
  Fe3+  Fe4  1  0.50119500  0.26658300  0.18062800  1
  Fe3+  Fe5  1  0.50119500  0.23341700  0.68062800  1
  Fe3+  Fe6  1  0.50128500  0.70084400  0.07142600  1
  Fe3+  Fe7  1  0.50128500  0.79915600  0.57142600  1
  Fe3+  Fe8  1  0.49871500  0.20084400  0.42857400  1
  Fe3+  Fe9  1  0.49871500  0.29915600  0.92857400  1
  Fe3+  Fe10  1  0.49880500  0.76658300  0.31937200  1
  Fe3+  Fe11  1  0.49880500  0.73341700  0.81937200  1
  Fe3+  Fe12  1  0.00128500  0.70084400  0.42857400  1
  Fe3+  Fe13  1  0.00119500  0.26658300  0.31937200  1
  Fe3+  Fe14  1  0.00119500  0.23341700  0.81937200  1
  Fe3+  Fe15  1  0.00128500  0.79915600  0.92857400  1
  O2-  O16  1  0.14209800  0.12957500  0.20322900  1
  O2-  O17  1  0.14209800  0.37042500  0.70322900  1
  O2-  O18  1  0.15026300  0.84255900  0.05124500  1
  O2-  O19  1  0.15026300  0.65744100  0.55124500  1
  O2-  O20  1  0.19795100  0.98185500  0.37639300  1
  O2-  O21  1  0.19795100  0.51814500  0.87639300  1
  O2-  O22  1  0.30204900  0.48185500  0.37639300  1
  O2-  O23  1  0.30204900  0.01814500  0.87639300  1
  O2-  O24  1  0.34973700  0.15744100  0.55124500  1
  O2-  O25  1  0.34973700  0.34255900  0.05124500  1
  O2-  O26  1  0.35790200  0.62957500  0.20322900  1
  O2-  O27  1  0.35790200  0.87042500  0.70322900  1
  O2-  O28  1  0.64209800  0.12957500  0.29677100  1
  O2-  O29  1  0.64209800  0.37042500  0.79677100  1
  O2-  O30  1  0.65026300  0.84255900  0.44875500  1
  O2-  O31  1  0.65026300  0.65744100  0.94875500  1
  O2-  O32  1  0.69795100  0.51814500  0.62360700  1
  O2-  O33  1  0.69795100  0.98185500  0.12360700  1
  O2-  O34  1  0.80204900  0.48185500  0.12360700  1
  O2-  O35  1  0.80204900  0.01814500  0.62360700  1
  O2-  O36  1  0.84973700  0.34255900  0.44875500  1
  O2-  O37  1  0.84973700  0.15744100  0.94875500  1
  O2-  O38  1  0.85790200  0.87042500  0.79677100  1
  O2-  O39  1  0.85790200  0.62957500  0.29677100  1
