# generated using pymatgen
data_Fe2O3
_symmetry_space_group_name_H-M   'P 1'
_cell_length_a   9.52475547
_cell_length_b   9.69261434
_cell_length_c   10.65193596
_cell_angle_alpha   89.15374467
_cell_angle_beta   89.30300677
_cell_angle_gamma   87.46853296
_symmetry_Int_Tables_number   1
_chemical_formula_structural   Fe2O3
_chemical_formula_sum   'Fe32 O48'
_cell_volume   982.25233594
_cell_formula_units_Z   16
loop_
 _symmetry_equiv_pos_site_id
 _symmetry_equiv_pos_as_xyz
  1  'x, y, z'
loop_
 _atom_type_symbol
 _atom_type_oxidation_number
  Fe3+  3.0
  O2-  -2.0
loop_
 _atom_site_type_symbol
 _atom_site_label
 _atom_site_symmetry_multiplicity
 _atom_site_fract_x
 _atom_site_fract_y
 _atom_site_fract_z
 _atom_site_occupancy
  Fe3+  Fe0  1  0.91004000  0.00003900  0.36130000  1
  Fe3+  Fe1  1  0.39301800  0.99561200  0.72181800  1
  Fe3+  Fe2  1  0.16957800  0.17983800  0.31934700  1
  Fe3+  Fe3  1  0.65819300  0.94069000  0.17906500  1
  Fe3+  Fe4  1  0.78149400  0.72285600  0.59778900  1
  Fe3+  Fe5  1  0.42897700  0.65525500  0.57581400  1
  Fe3+  Fe6  1  0.13938600  0.87489200  0.55564300  1
  Fe3+  Fe7  1  0.94293600  0.41737100  0.43274500  1
  Fe3+  Fe8  1  0.37191600  0.52368000  0.86692500  1
  Fe3+  Fe9  1  0.12066400  0.55678800  0.63165500  1
  Fe3+  Fe10  1  0.95813000  0.97742100  0.07510900  1
  Fe3+  Fe11  1  0.37203300  0.99100600  0.05182600  1
  Fe3+  Fe12  1  0.25326700  0.50698100  0.37432900  1
  Fe3+  Fe13  1  0.64994300  0.78321700  0.91912300  1
  Fe3+  Fe14  1  0.75847000  0.43859200  0.66828100  1
  Fe3+  Fe15  1  0.08423400  0.19788400  0.61166700  1
  Fe3+  Fe16  1  0.94666100  0.91534200  0.79529100  1
  Fe3+  Fe17  1  0.56343300  0.47781600  0.31948700  1
  Fe3+  Fe18  1  0.42985600  0.26549600  0.55966200  1
  Fe3+  Fe19  1  0.94845600  0.64360100  0.89813600  1
  Fe3+  Fe20  1  0.78749600  0.27062200  0.24006200  1
  Fe3+  Fe21  1  0.68269800  0.46722300  0.98004900  1
  Fe3+  Fe22  1  0.89053600  0.26842800  0.89271300  1
  Fe3+  Fe23  1  0.60795500  0.94985400  0.44810500  1
  Fe3+  Fe24  1  0.98916800  0.73704200  0.33796900  1
  Fe3+  Fe25  1  0.19430900  0.19661600  0.86874300  1
  Fe3+  Fe26  1  0.89131900  0.53832300  0.16211200  1
  Fe3+  Fe27  1  0.44518100  0.65131900  0.12084400  1
  Fe3+  Fe28  1  0.64732800  0.08709600  0.92145800  1
  Fe3+  Fe29  1  0.72592100  0.14983200  0.62926000  1
  Fe3+  Fe30  1  0.20841500  0.44351900  0.07936000  1
  Fe3+  Fe31  1  0.44229900  0.17816500  0.24767500  1
  O2-  O32  1  0.39852300  0.62499600  0.29259400  1
  O2-  O33  1  0.97402500  0.25801300  0.31909100  1
  O2-  O34  1  0.43444700  0.46235200  0.47432000  1
  O2-  O35  1  0.00917400  0.83881600  0.95179800  1
  O2-  O36  1  0.56430000  0.48941700  0.13342500  1
  O2-  O37  1  0.75885200  0.84720200  0.31684700  1
  O2-  O38  1  0.29236200  0.18664300  0.68200700  1
  O2-  O39  1  0.33371800  0.84620700  0.62142000  1
  O2-  O40  1  0.83572800  0.47247200  0.83481400  1
  O2-  O41  1  0.29201300  0.61087700  0.01733200  1
  O2-  O42  1  0.59792400  0.77234800  0.51901900  1
  O2-  O43  1  0.94253700  0.82383200  0.50780100  1
  O2-  O44  1  0.05031700  0.29343900  0.77292400  1
  O2-  O45  1  0.50899700  0.83045300  0.07791000  1
  O2-  O46  1  0.20196200  0.66853900  0.49220600  1
  O2-  O47  1  0.55127200  0.94425600  0.83474200  1
  O2-  O48  1  0.07930400  0.00295600  0.68974600  1
  O2-  O49  1  0.06068800  0.68712600  0.75087500  1
  O2-  O50  1  0.26692700  0.36378800  0.23638100  1
  O2-  O51  1  0.03031000  0.89795400  0.23181300  1
  O2-  O52  1  0.81469100  0.08674700  0.78873300  1
  O2-  O53  1  0.78373800  0.64926800  0.03067400  1
  O2-  O54  1  0.51078200  0.99239400  0.30051700  1
  O2-  O55  1  0.60528200  0.31455400  0.64800000  1
  O2-  O56  1  0.83293500  0.36408900  0.08568800  1
  O2-  O57  1  0.26454000  0.08922800  0.17830300  1
  O2-  O58  1  0.54843600  0.60550300  0.89788300  1
  O2-  O59  1  0.53264700  0.06927600  0.59328300  1
  O2-  O60  1  0.29561200  0.35056500  0.93622200  1
  O2-  O61  1  0.09524600  0.05402300  0.45336700  1
  O2-  O62  1  0.04383400  0.54556300  0.29844900  1
  O2-  O63  1  0.62910900  0.58811700  0.64348000  1
  O2-  O64  1  0.13442800  0.38920700  0.51375200  1
  O2-  O65  1  0.52598500  0.11175900  0.07668400  1
  O2-  O66  1  0.29263100  0.02156200  0.89157700  1
  O2-  O67  1  0.81508000  0.07887400  0.19971500  1
  O2-  O68  1  0.75522000  0.93701500  0.00973300  1
  O2-  O69  1  0.03485600  0.52412600  0.02970400  1
  O2-  O70  1  0.79643200  0.77862700  0.77646900  1
  O2-  O71  1  0.59728300  0.27873400  0.30872900  1
  O2-  O72  1  0.76756800  0.06093900  0.47617200  1
  O2-  O73  1  0.67765400  0.27927100  0.90961600  1
  O2-  O74  1  0.32037000  0.54486300  0.69948500  1
  O2-  O75  1  0.34156200  0.19372600  0.41337000  1
  O2-  O76  1  0.87634800  0.28442200  0.58038800  1
  O2-  O77  1  0.89942300  0.55342000  0.57080800  1
  O2-  O78  1  0.02340500  0.14268000  0.98196300  1
  O2-  O79  1  0.77542200  0.47953700  0.32086400  1
