# generated using pymatgen
data_Fe38O39
_symmetry_space_group_name_H-M   'P 1'
_cell_length_a   10.24830930
_cell_length_b   10.25386797
_cell_length_c   10.25882715
_cell_angle_alpha   100.91311129
_cell_angle_beta   113.90437071
_cell_angle_gamma   113.76940753
_symmetry_Int_Tables_number   1
_chemical_formula_structural   Fe38O39
_chemical_formula_sum   'Fe38 O39'
_cell_volume   817.94299097
_cell_formula_units_Z   1
loop_
 _symmetry_equiv_pos_site_id
 _symmetry_equiv_pos_as_xyz
  1  'x, y, z'
loop_
 _atom_type_symbol
 _atom_type_oxidation_number
  Fe2+  2.0
  Fe3+  3.0
  O2-  -2.0
loop_
 _atom_site_type_symbol
 _atom_site_label
 _atom_site_symmetry_multiplicity
 _atom_site_fract_x
 _atom_site_fract_y
 _atom_site_fract_z
 _atom_site_occupancy
  Fe2+  Fe0  1  0.92325119  0.43619636  0.82180289  1
  Fe2+  Fe1  1  0.85165623  0.19931874  0.97684287  1
  Fe2+  Fe2  1  0.77485207  0.97138260  0.12311231  1
  Fe2+  Fe3  1  0.92239433  0.10402488  0.48841390  1
  Fe2+  Fe4  1  0.69199876  0.74465935  0.28242366  1
  Fe2+  Fe5  1  0.61294620  0.50956042  0.43241995  1
  Fe2+  Fe6  1  0.77442779  0.65042258  0.80264136  1
  Fe2+  Fe7  1  0.54174962  0.28695787  0.59330480  1
  Fe2+  Fe8  1  0.92087663  0.77097967  0.14610363  1
  Fe2+  Fe9  1  0.69498430  0.41006160  0.95010010  1
  Fe2+  Fe10  1  0.46267293  0.05288922  0.74826821  1
  Fe2+  Fe11  1  0.84417648  0.54064032  0.30439795  1
  Fe2+  Fe12  1  0.61431920  0.17929120  0.10150983  1
  Fe2+  Fe13  1  0.38568080  0.82070880  0.89849017  1
  Fe2+  Fe14  1  0.76618893  0.30450398  0.46167485  1
  Fe2+  Fe15  1  0.53732707  0.94711078  0.25173179  1
  Fe2+  Fe16  1  0.30501570  0.58993840  0.04989990  1
  Fe2+  Fe17  1  0.68995487  0.07746359  0.61105008  1
  Fe2+  Fe18  1  0.45825038  0.71304213  0.40669520  1
  Fe2+  Fe19  1  0.22557221  0.34957742  0.19735864  1
  Fe2+  Fe20  1  0.62481555  0.85060165  0.77441478  1
  Fe2+  Fe21  1  0.38705380  0.49043958  0.56758005  1
  Fe2+  Fe22  1  0.53167499  0.60901234  0.92285737  1
  Fe2+  Fe23  1  0.30800124  0.25534065  0.71757634  1
  Fe2+  Fe24  1  0.07760567  0.89597512  0.51158610  1
  Fe2+  Fe25  1  0.46832501  0.39098766  0.07714263  1
  Fe2+  Fe26  1  0.22514793  0.02861740  0.87688769  1
  Fe2+  Fe27  1  0.00005703  0.66186201  0.66293329  1
  Fe2+  Fe28  1  0.37518445  0.14939835  0.22558522  1
  Fe2+  Fe29  1  0.14834377  0.80068126  0.02315713  1
  Fe2+  Fe30  1  0.31004513  0.92253641  0.38894992  1
  Fe2+  Fe31  1  0.07674881  0.56380364  0.17819711  1
  Fe2+  Fe32  1  0.23381107  0.69549602  0.53832515  1
  Fe2+  Fe33  1  0.99994297  0.33813799  0.33706671  1
  Fe2+  Fe34  1  0.15582352  0.45935968  0.69560205  1
  Fe2+  Fe35  1  0.07912337  0.22902033  0.85389637  1
  Fe3+  Fe36  1  0.85096994  0.87451434  0.65239234  1
  Fe3+  Fe37  1  0.14903006  0.12548566  0.34760766  1
  O2-  O38  1  0.92476703  0.60096106  0.98295750  1
  O2-  O39  1  0.84112803  0.37070997  0.13576870  1
  O2-  O40  1  0.76705367  0.13126027  0.29585894  1
  O2-  O41  1  0.93054950  0.27826440  0.65853460  1
  O2-  O42  1  0.69204235  0.90666282  0.45937222  1
  O2-  O43  1  0.84597183  0.03570239  0.79246610  1
  O2-  O44  1  0.62719500  0.68365546  0.60009959  1
  O2-  O45  1  0.74936751  0.79698906  0.95296663  1
  O2-  O46  1  0.54368783  0.45239309  0.76492443  1
  O2-  O47  1  0.93969675  0.94779529  0.32705685  1
  O2-  O48  1  0.69858163  0.58382470  0.11722618  1
  O2-  O49  1  0.45485523  0.22124889  0.90691000  1
  O2-  O50  1  0.84150136  0.71498987  0.47638547  1
  O2-  O51  1  0.62372972  0.35317550  0.27190818  1
  O2-  O52  1  0.38311889  0.98365144  0.05868486  1
  O2-  O53  1  0.76277451  0.47173931  0.62878200  1
  O2-  O54  1  0.53932472  0.12232313  0.41698837  1
  O2-  O55  1  0.31189582  0.76965894  0.22025200  1
  O2-  O56  1  0.68810418  0.23034106  0.77974800  1
  O2-  O57  1  0.46067528  0.87767687  0.58301163  1
  O2-  O58  1  0.23722549  0.52826069  0.37121800  1
  O2-  O59  1  0.61688111  0.01634856  0.94131514  1
  O2-  O60  1  0.37627028  0.64682450  0.72809182  1
  O2-  O61  1  0.15849864  0.28501013  0.52361453  1
  O2-  O62  1  0.54514477  0.77875111  0.09309000  1
  O2-  O63  1  0.30141837  0.41617530  0.88277382  1
  O2-  O64  1  0.06030325  0.05220471  0.67294315  1
  O2-  O65  1  0.45631217  0.54760691  0.23507557  1
  O2-  O66  1  0.25063249  0.20301094  0.04703337  1
  O2-  O67  1  0.99523337  0.82139312  0.81437279  1
  O2-  O68  1  0.37280500  0.31634454  0.39990041  1
  O2-  O69  1  0.15402817  0.96429761  0.20753390  1
  O2-  O70  1  0.30795765  0.09333718  0.54062778  1
  O2-  O71  1  0.06945050  0.72173560  0.34146540  1
  O2-  O72  1  0.23294633  0.86873973  0.70414106  1
  O2-  O73  1  0.00000000  0.50000000  0.50000000  1
  O2-  O74  1  0.15887197  0.62929003  0.86423130  1
  O2-  O75  1  0.07523297  0.39903894  0.01704250  1
  O2-  O76  1  0.00476663  0.17860688  0.18562721  1
