# generated using pymatgen
data_Fe3O4
_symmetry_space_group_name_H-M   'P 1'
_cell_length_a   10.42833200
_cell_length_b   5.96834200
_cell_length_c   5.04953885
_cell_angle_alpha   90.00000000
_cell_angle_beta   104.99092183
_cell_angle_gamma   90.00000000
_symmetry_Int_Tables_number   1
_chemical_formula_structural   Fe3O4
_chemical_formula_sum   'Fe12 O16'
_cell_volume   303.58651633
_cell_formula_units_Z   4
loop_
 _symmetry_equiv_pos_site_id
 _symmetry_equiv_pos_as_xyz
  1  'x, y, z'
loop_
 _atom_type_symbol
 _atom_type_oxidation_number
  Fe2+  2.0
  Fe3+  3.0
  O2-  -2.0
loop_
 _atom_site_type_symbol
 _atom_site_label
 _atom_site_symmetry_multiplicity
 _atom_site_fract_x
 _atom_site_fract_y
 _atom_site_fract_z
 _atom_site_occupancy
  Fe2+  Fe0  1  0.25091700  0.50000000  0.50548800  1
  Fe2+  Fe1  1  0.24908300  0.00000000  0.49451200  1
  Fe2+  Fe2  1  0.75091700  0.00000000  0.50548800  1
  Fe2+  Fe3  1  0.74908300  0.50000000  0.49451200  1
  Fe3+  Fe4  1  0.00000000  0.00000000  0.00000000  1
  Fe3+  Fe5  1  0.00000000  0.50000000  0.00000000  1
  Fe3+  Fe6  1  0.00000000  0.75054300  0.50000000  1
  Fe3+  Fe7  1  0.00000000  0.24945700  0.50000000  1
  Fe3+  Fe8  1  0.50000000  0.50000000  0.00000000  1
  Fe3+  Fe9  1  0.50000000  0.00000000  0.00000000  1
  Fe3+  Fe10  1  0.50000000  0.25054300  0.50000000  1
  Fe3+  Fe11  1  0.50000000  0.74945700  0.50000000  1
  O2-  O12  1  0.39647900  0.00000000  0.29283400  1
  O2-  O13  1  0.39077100  0.74896700  0.76130300  1
  O2-  O14  1  0.39077100  0.25103300  0.76130300  1
  O2-  O15  1  0.39662000  0.50000000  0.29303500  1
  O2-  O16  1  0.10352100  0.50000000  0.70716600  1
  O2-  O17  1  0.10338000  0.00000000  0.70696500  1
  O2-  O18  1  0.10922900  0.24896700  0.23869700  1
  O2-  O19  1  0.10922900  0.75103300  0.23869700  1
  O2-  O20  1  0.89647900  0.50000000  0.29283400  1
  O2-  O21  1  0.89077100  0.24896700  0.76130300  1
  O2-  O22  1  0.89077100  0.75103300  0.76130300  1
  O2-  O23  1  0.89662000  0.00000000  0.29303500  1
  O2-  O24  1  0.60352100  0.00000000  0.70716600  1
  O2-  O25  1  0.60338000  0.50000000  0.70696500  1
  O2-  O26  1  0.60922900  0.74896700  0.23869700  1
  O2-  O27  1  0.60922900  0.25103300  0.23869700  1
