# generated using pymatgen
data_Fe3O4
_symmetry_space_group_name_H-M   'P 1'
_cell_length_a   3.01278002
_cell_length_b   10.05688600
_cell_length_c   10.46110310
_cell_angle_alpha   90.00000000
_cell_angle_beta   90.01387427
_cell_angle_gamma   90.00000000
_symmetry_Int_Tables_number   1
_chemical_formula_structural   Fe3O4
_chemical_formula_sum   'Fe12 O16'
_cell_volume   316.96289056
_cell_formula_units_Z   4
loop_
 _symmetry_equiv_pos_site_id
 _symmetry_equiv_pos_as_xyz
  1  'x, y, z'
loop_
 _atom_type_symbol
 _atom_type_oxidation_number
  Fe2+  2.0
  Fe3+  3.0
  O2-  -2.0
loop_
 _atom_site_type_symbol
 _atom_site_label
 _atom_site_symmetry_multiplicity
 _atom_site_fract_x
 _atom_site_fract_y
 _atom_site_fract_z
 _atom_site_occupancy
  Fe2+  Fe0  1  0.72081400  0.62264100  0.99924200  1
  Fe2+  Fe1  1  0.72792300  0.87579500  0.49994500  1
  Fe2+  Fe2  1  0.27918600  0.12264100  0.00075800  1
  Fe2+  Fe3  1  0.27207700  0.37579500  0.50005500  1
  Fe3+  Fe4  1  0.75360400  0.87874300  0.17710100  1
  Fe3+  Fe5  1  0.24639600  0.37874300  0.82289900  1
  Fe3+  Fe6  1  0.75429500  0.61835100  0.32331400  1
  Fe3+  Fe7  1  0.24570500  0.11835100  0.67668600  1
  Fe3+  Fe8  1  0.24684700  0.11953700  0.32403900  1
  Fe3+  Fe9  1  0.24604900  0.38015800  0.17673500  1
  Fe3+  Fe10  1  0.75315300  0.61953700  0.67596100  1
  Fe3+  Fe11  1  0.75395100  0.88015800  0.82326500  1
  O2-  O12  1  0.74711300  0.81348200  0.99924700  1
  O2-  O13  1  0.74705500  0.68788800  0.49875800  1
  O2-  O14  1  0.25288700  0.31348200  0.00075300  1
  O2-  O15  1  0.25294500  0.18788800  0.50124200  1
  O2-  O16  1  0.74719800  0.51246200  0.14839300  1
  O2-  O17  1  0.74814800  0.98977900  0.35256500  1
  O2-  O18  1  0.25280200  0.01246200  0.85160700  1
  O2-  O19  1  0.25185200  0.48977900  0.64743500  1
  O2-  O20  1  0.25254300  0.48863200  0.35244000  1
  O2-  O21  1  0.25228700  0.01095300  0.15114700  1
  O2-  O22  1  0.74745700  0.98863200  0.64756000  1
  O2-  O23  1  0.74771300  0.51095300  0.84885300  1
  O2-  O24  1  0.24999800  0.75043800  0.24879000  1
  O2-  O25  1  0.75000200  0.25043800  0.75121000  1
  O2-  O26  1  0.74824400  0.25114000  0.25076800  1
  O2-  O27  1  0.25175600  0.75114000  0.74923200  1
