# generated using pymatgen
data_Fe3O4
_symmetry_space_group_name_H-M   'P 1'
_cell_length_a   10.22291400
_cell_length_b   5.97762600
_cell_length_c   5.10076598
_cell_angle_alpha   90.00000000
_cell_angle_beta   106.50684406
_cell_angle_gamma   90.00000000
_symmetry_Int_Tables_number   1
_chemical_formula_structural   Fe3O4
_chemical_formula_sum   'Fe12 O16'
_cell_volume   298.85494034
_cell_formula_units_Z   4
loop_
 _symmetry_equiv_pos_site_id
 _symmetry_equiv_pos_as_xyz
  1  'x, y, z'
loop_
 _atom_type_symbol
 _atom_type_oxidation_number
  Fe2+  2.0
  Fe3+  3.0
  O2-  -2.0
loop_
 _atom_site_type_symbol
 _atom_site_label
 _atom_site_symmetry_multiplicity
 _atom_site_fract_x
 _atom_site_fract_y
 _atom_site_fract_z
 _atom_site_occupancy
  Fe2+  Fe0  1  0.60611000  0.00000000  0.67073900  1
  Fe2+  Fe1  1  0.36001600  0.00000000  0.18531900  1
  Fe2+  Fe2  1  0.10611000  0.50000000  0.67073900  1
  Fe2+  Fe3  1  0.86001600  0.50000000  0.18531900  1
  Fe3+  Fe4  1  0.35742250  0.75029050  0.68176500  1
  Fe3+  Fe5  1  0.10887900  0.00000000  0.68163600  1
  Fe3+  Fe6  1  0.35742250  0.24970950  0.68176500  1
  Fe3+  Fe7  1  0.85371200  0.00000000  0.17554300  1
  Fe3+  Fe8  1  0.85742250  0.25029050  0.68176500  1
  Fe3+  Fe9  1  0.60887900  0.50000000  0.68163600  1
  Fe3+  Fe10  1  0.85742250  0.74970950  0.68176500  1
  Fe3+  Fe11  1  0.35371200  0.50000000  0.17554300  1
  O2-  O12  1  0.96356100  0.00000000  0.89218600  1
  O2-  O13  1  0.73898250  0.75139650  0.91769100  1
  O2-  O14  1  0.47618650  0.26807650  0.43609100  1
  O2-  O15  1  0.46234800  0.00000000  0.87996100  1
  O2-  O16  1  0.75243500  0.00000000  0.46268600  1
  O2-  O17  1  0.73898250  0.24860350  0.91769100  1
  O2-  O18  1  0.47618650  0.73192350  0.43609100  1
  O2-  O19  1  0.24888900  0.00000000  0.47661200  1
  O2-  O20  1  0.46356100  0.50000000  0.89218600  1
  O2-  O21  1  0.23898250  0.25139650  0.91769100  1
  O2-  O22  1  0.97618650  0.76807650  0.43609100  1
  O2-  O23  1  0.96234800  0.50000000  0.87996100  1
  O2-  O24  1  0.25243500  0.50000000  0.46268600  1
  O2-  O25  1  0.23898250  0.74860350  0.91769100  1
  O2-  O26  1  0.97618650  0.23192350  0.43609100  1
  O2-  O27  1  0.74888900  0.50000000  0.47661200  1
