# generated using pymatgen
data_Fe3O4
_symmetry_space_group_name_H-M   'P 1'
_cell_length_a   6.09223100
_cell_length_b   6.09147700
_cell_length_c   16.97859873
_cell_angle_alpha   90.00000000
_cell_angle_beta   90.15943263
_cell_angle_gamma   90.00000000
_symmetry_Int_Tables_number   1
_chemical_formula_structural   Fe3O4
_chemical_formula_sum   'Fe24 O32'
_cell_volume   630.08499018
_cell_formula_units_Z   8
loop_
 _symmetry_equiv_pos_site_id
 _symmetry_equiv_pos_as_xyz
  1  'x, y, z'
loop_
 _atom_type_symbol
 _atom_type_oxidation_number
  Fe2+  2.0
  Fe3+  3.0
  O2-  -2.0
loop_
 _atom_site_type_symbol
 _atom_site_label
 _atom_site_symmetry_multiplicity
 _atom_site_fract_x
 _atom_site_fract_y
 _atom_site_fract_z
 _atom_site_occupancy
  Fe2+  Fe0  1  0.00258800  0.75211600  0.75721800  1
  Fe2+  Fe1  1  0.25167300  0.50000000  0.87708900  1
  Fe2+  Fe2  1  0.00185500  0.50000000  0.56923300  1
  Fe2+  Fe3  1  0.49844700  0.50000000  0.19083300  1
  Fe2+  Fe4  1  0.49881700  0.00000000  0.31405200  1
  Fe2+  Fe5  1  0.99984800  0.00000000  0.44416400  1
  Fe2+  Fe6  1  0.00258800  0.24788400  0.75721800  1
  Fe2+  Fe7  1  0.00498200  0.50000000  0.07099700  1
  Fe3+  Fe8  1  0.49976800  0.74842600  0.50338300  1
  Fe3+  Fe9  1  0.49515300  0.74844500  0.00456800  1
  Fe3+  Fe10  1  0.50181600  0.50000000  0.69365200  1
  Fe3+  Fe11  1  0.74821400  0.00000000  0.13171500  1
  Fe3+  Fe12  1  0.00446500  0.74396000  0.25274500  1
  Fe3+  Fe13  1  0.24441800  0.50000000  0.37665800  1
  Fe3+  Fe14  1  0.75293600  0.50000000  0.88120500  1
  Fe3+  Fe15  1  0.75579400  0.50000000  0.37583800  1
  Fe3+  Fe16  1  0.50630500  0.00000000  0.81738700  1
  Fe3+  Fe17  1  0.75517500  0.00000000  0.63034500  1
  Fe3+  Fe18  1  0.49976800  0.25157400  0.50338300  1
  Fe3+  Fe19  1  0.49515300  0.25155500  0.00456800  1
  Fe3+  Fe20  1  0.99355100  0.00000000  0.94481500  1
  Fe3+  Fe21  1  0.24843900  0.00000000  0.12942200  1
  Fe3+  Fe22  1  0.00446500  0.25604000  0.25274500  1
  Fe3+  Fe23  1  0.24755300  0.00000000  0.63135400  1
  O2-  O24  1  0.50911300  0.25920000  0.88477800  1
  O2-  O25  1  0.72759800  0.00000000  0.00996600  1
  O2-  O26  1  0.72545800  0.50000000  0.49638100  1
  O2-  O27  1  0.50285200  0.23683600  0.62504100  1
  O2-  O28  1  0.50008800  0.73481000  0.38002100  1
  O2-  O29  1  0.75416800  0.00000000  0.74878300  1
  O2-  O30  1  0.00902500  0.21530600  0.13185700  1
  O2-  O31  1  0.27763800  0.50000000  0.00115500  1
  O2-  O32  1  0.22929300  0.50000000  0.25819700  1
  O2-  O33  1  0.24782800  0.50000000  0.75618900  1
  O2-  O34  1  0.98385300  0.74373300  0.88309800  1
  O2-  O35  1  0.72060300  0.00000000  0.50923500  1
  O2-  O36  1  0.50285200  0.76316400  0.62504100  1
  O2-  O37  1  0.72176000  0.50000000  0.00134400  1
  O2-  O38  1  0.75951400  0.00000000  0.25101100  1
  O2-  O39  1  0.48979400  0.78387900  0.12388900  1
  O2-  O40  1  0.50911300  0.74080000  0.88477800  1
  O2-  O41  1  0.00050700  0.27568800  0.37542200  1
  O2-  O42  1  0.28055800  0.00000000  0.50963900  1
  O2-  O43  1  0.75118800  0.50000000  0.76180200  1
  O2-  O44  1  0.00050700  0.72431200  0.37542200  1
  O2-  O45  1  0.48979400  0.21612100  0.12388900  1
  O2-  O46  1  0.25294800  0.00000000  0.75032500  1
  O2-  O47  1  0.27670600  0.50000000  0.49683500  1
  O2-  O48  1  0.50008800  0.26519000  0.38002100  1
  O2-  O49  1  0.26265400  0.00000000  0.01008100  1
  O2-  O50  1  0.00902500  0.78469400  0.13185700  1
  O2-  O51  1  0.23994400  0.00000000  0.24806600  1
  O2-  O52  1  0.00103400  0.22079200  0.63026100  1
  O2-  O53  1  0.77228300  0.50000000  0.25664800  1
  O2-  O54  1  0.00103400  0.77920800  0.63026100  1
  O2-  O55  1  0.98385300  0.25626700  0.88309800  1
