# generated using pymatgen
data_Fe3O4
_symmetry_space_group_name_H-M   'P 1'
_cell_length_a   3.29748300
_cell_length_b   5.89915100
_cell_length_c   12.18402900
_cell_angle_alpha   90.00000000
_cell_angle_beta   90.00000000
_cell_angle_gamma   90.00000000
_symmetry_Int_Tables_number   1
_chemical_formula_structural   Fe3O4
_chemical_formula_sum   'Fe6 O8'
_cell_volume   237.00799819
_cell_formula_units_Z   2
loop_
 _symmetry_equiv_pos_site_id
 _symmetry_equiv_pos_as_xyz
  1  'x, y, z'
loop_
 _atom_type_symbol
 _atom_type_oxidation_number
  Fe2+  2.0
  Fe3+  3.0
  O2-  -2.0
loop_
 _atom_site_type_symbol
 _atom_site_label
 _atom_site_symmetry_multiplicity
 _atom_site_fract_x
 _atom_site_fract_y
 _atom_site_fract_z
 _atom_site_occupancy
  Fe2+  Fe0  1  0.00000000  0.75000000  0.58263300  1
  Fe2+  Fe1  1  0.00000000  0.25000000  0.41736700  1
  Fe3+  Fe2  1  0.00000000  0.51775100  0.11763400  1
  Fe3+  Fe3  1  0.00000000  0.48224900  0.88236600  1
  Fe3+  Fe4  1  0.00000000  0.98224900  0.11763400  1
  Fe3+  Fe5  1  0.00000000  0.01775100  0.88236600  1
  O2-  O6  1  0.00000000  0.75000000  0.99852200  1
  O2-  O7  1  0.00000000  0.25000000  0.00147800  1
  O2-  O8  1  0.00000000  0.12162200  0.25931000  1
  O2-  O9  1  0.00000000  0.87837800  0.74069000  1
  O2-  O10  1  0.00000000  0.37837800  0.25931000  1
  O2-  O11  1  0.00000000  0.62162200  0.74069000  1
  O2-  O12  1  0.00000000  0.50000000  0.50000000  1
  O2-  O13  1  0.00000000  0.00000000  0.50000000  1
