# generated using pymatgen
data_Fe3O4
_symmetry_space_group_name_H-M   'P 1'
_cell_length_a   6.06196000
_cell_length_b   6.08553000
_cell_length_c   17.16227600
_cell_angle_alpha   90.00000000
_cell_angle_beta   90.00000000
_cell_angle_gamma   90.00000000
_symmetry_Int_Tables_number   1
_chemical_formula_structural   Fe3O4
_chemical_formula_sum   'Fe24 O32'
_cell_volume   633.12047095
_cell_formula_units_Z   8
loop_
 _symmetry_equiv_pos_site_id
 _symmetry_equiv_pos_as_xyz
  1  'x, y, z'
loop_
 _atom_type_symbol
 _atom_type_oxidation_number
  Fe2+  2.0
  Fe3+  3.0
  O2-  -2.0
loop_
 _atom_site_type_symbol
 _atom_site_label
 _atom_site_symmetry_multiplicity
 _atom_site_fract_x
 _atom_site_fract_y
 _atom_site_fract_z
 _atom_site_occupancy
  Fe2+  Fe0  1  0.25000000  0.74420900  0.87653700  1
  Fe2+  Fe1  1  0.25000000  0.25579100  0.37653700  1
  Fe2+  Fe2  1  0.75000000  0.74420900  0.62346300  1
  Fe2+  Fe3  1  0.50000000  0.50000000  0.50000000  1
  Fe2+  Fe4  1  0.75000000  0.25579100  0.12346300  1
  Fe2+  Fe5  1  0.00000000  0.50000000  0.00000000  1
  Fe2+  Fe6  1  0.00000000  0.50000000  0.50000000  1
  Fe2+  Fe7  1  0.50000000  0.50000000  0.00000000  1
  Fe3+  Fe8  1  0.75000000  0.24856700  0.62213100  1
  Fe3+  Fe9  1  0.75000000  0.48840600  0.81161100  1
  Fe3+  Fe10  1  0.25000000  0.99722700  0.06363000  1
  Fe3+  Fe11  1  0.75000000  0.51159400  0.31161100  1
  Fe3+  Fe12  1  0.50000000  0.00879900  0.25000000  1
  Fe3+  Fe13  1  0.25000000  0.48840600  0.68838900  1
  Fe3+  Fe14  1  0.50000000  0.99120100  0.75000000  1
  Fe3+  Fe15  1  0.25000000  0.75143300  0.37786900  1
  Fe3+  Fe16  1  0.25000000  0.24856700  0.87786900  1
  Fe3+  Fe17  1  0.75000000  0.75143300  0.12213100  1
  Fe3+  Fe18  1  0.00000000  0.99120100  0.75000000  1
  Fe3+  Fe19  1  0.25000000  0.51159400  0.18838900  1
  Fe3+  Fe20  1  0.75000000  0.99722700  0.43637000  1
  Fe3+  Fe21  1  0.75000000  0.00277300  0.93637000  1
  Fe3+  Fe22  1  0.00000000  0.00879900  0.25000000  1
  Fe3+  Fe23  1  0.25000000  0.00277300  0.56363000  1
  O2-  O24  1  0.51414300  0.48615200  0.62741600  1
  O2-  O25  1  0.01234300  0.00383500  0.86905600  1
  O2-  O26  1  0.25000000  0.23766600  0.24887200  1
  O2-  O27  1  0.75000000  0.74318500  0.50120700  1
  O2-  O28  1  0.98585700  0.48615200  0.62741600  1
  O2-  O29  1  0.48585700  0.48615200  0.87258400  1
  O2-  O30  1  0.48585700  0.51384800  0.37258400  1
  O2-  O31  1  0.48765700  0.99616500  0.36905600  1
  O2-  O32  1  0.75000000  0.75350600  0.00502200  1
  O2-  O33  1  0.75000000  0.25681500  0.00120700  1
  O2-  O34  1  0.25000000  0.76233400  0.74887200  1
  O2-  O35  1  0.25000000  0.74318500  0.99879300  1
  O2-  O36  1  0.98765700  0.99616500  0.13094400  1
  O2-  O37  1  0.75000000  0.76233400  0.75112800  1
  O2-  O38  1  0.75000000  0.24649400  0.50502200  1
  O2-  O39  1  0.75000000  0.22328000  0.74514500  1
  O2-  O40  1  0.75000000  0.77672000  0.24514500  1
  O2-  O41  1  0.48765700  0.00383500  0.86905600  1
  O2-  O42  1  0.25000000  0.77672000  0.25485500  1
  O2-  O43  1  0.51414300  0.51384800  0.12741600  1
  O2-  O44  1  0.98765700  0.00383500  0.63094400  1
  O2-  O45  1  0.25000000  0.24649400  0.99497800  1
  O2-  O46  1  0.98585700  0.51384800  0.12741600  1
  O2-  O47  1  0.25000000  0.25681500  0.49879300  1
  O2-  O48  1  0.25000000  0.75350600  0.49497800  1
  O2-  O49  1  0.51234300  0.99616500  0.13094400  1
  O2-  O50  1  0.75000000  0.23766600  0.25112800  1
  O2-  O51  1  0.01414300  0.48615200  0.87258400  1
  O2-  O52  1  0.01234300  0.99616500  0.36905600  1
  O2-  O53  1  0.51234300  0.00383500  0.63094400  1
  O2-  O54  1  0.25000000  0.22328000  0.75485500  1
  O2-  O55  1  0.01414300  0.51384800  0.37258400  1
