# generated using pymatgen
data_Fe3O4
_symmetry_space_group_name_H-M   'P 1'
_cell_length_a   6.05123073
_cell_length_b   6.06343856
_cell_length_c   10.50651222
_cell_angle_alpha   90.65687217
_cell_angle_beta   106.63877828
_cell_angle_gamma   119.81823954
_symmetry_Int_Tables_number   1
_chemical_formula_structural   Fe3O4
_chemical_formula_sum   'Fe12 O16'
_cell_volume   314.92018922
_cell_formula_units_Z   4
loop_
 _symmetry_equiv_pos_site_id
 _symmetry_equiv_pos_as_xyz
  1  'x, y, z'
loop_
 _atom_type_symbol
 _atom_type_oxidation_number
  Fe2+  2.0
  Fe3+  3.0
  O2-  -2.0
loop_
 _atom_site_type_symbol
 _atom_site_label
 _atom_site_symmetry_multiplicity
 _atom_site_fract_x
 _atom_site_fract_y
 _atom_site_fract_z
 _atom_site_occupancy
  Fe2+  Fe0  1  0.50089600  0.75226800  0.75096300  1
  Fe2+  Fe1  1  0.50026600  0.24916600  0.24909000  1
  Fe2+  Fe2  1  0.50159900  0.99908300  0.00134600  1
  Fe2+  Fe3  1  0.99837000  0.24924600  0.24918500  1
  Fe3+  Fe4  1  0.49756200  0.50019000  0.49692900  1
  Fe3+  Fe5  1  0.00129100  0.75072500  0.75070800  1
  Fe3+  Fe6  1  0.50032200  0.75288400  0.24688700  1
  Fe3+  Fe7  1  0.50063800  0.24904100  0.75195700  1
  Fe3+  Fe8  1  0.87393500  0.68009000  0.06259900  1
  Fe3+  Fe9  1  0.87609000  0.18095700  0.56358500  1
  Fe3+  Fe10  1  0.12538800  0.81806600  0.43778000  1
  Fe3+  Fe11  1  0.12520000  0.32000300  0.93690600  1
  O2-  O12  1  0.74494000  0.36351100  0.12600900  1
  O2-  O13  1  0.75243500  0.85663900  0.62564200  1
  O2-  O14  1  0.26431400  0.14585000  0.38216500  1
  O2-  O15  1  0.23679600  0.63323300  0.86667200  1
  O2-  O16  1  0.25977200  0.39035300  0.12999600  1
  O2-  O17  1  0.24648300  0.88293800  0.63398300  1
  O2-  O18  1  0.26142100  0.86994900  0.13235300  1
  O2-  O19  1  0.27324700  0.38252400  0.62636800  1
  O2-  O20  1  0.73318000  0.62554300  0.37824800  1
  O2-  O21  1  0.73357900  0.12263400  0.86380900  1
  O2-  O22  1  0.74075400  0.86786800  0.13079600  1
  O2-  O23  1  0.74209400  0.38653900  0.62779100  1
  O2-  O24  1  0.74161700  0.10999100  0.37185200  1
  O2-  O25  1  0.75118100  0.61569600  0.86410000  1
  O2-  O26  1  0.27179000  0.62822700  0.38049400  1
  O2-  O27  1  0.24483900  0.11678500  0.86178500  1
