# generated using pymatgen
data_Fe3O4
_symmetry_space_group_name_H-M   'P 1'
_cell_length_a   5.92397200
_cell_length_b   6.61708000
_cell_length_c   16.13268400
_cell_angle_alpha   90.00000000
_cell_angle_beta   90.00000000
_cell_angle_gamma   90.00000000
_symmetry_Int_Tables_number   1
_chemical_formula_structural   Fe3O4
_chemical_formula_sum   'Fe24 O32'
_cell_volume   632.39147901
_cell_formula_units_Z   8
loop_
 _symmetry_equiv_pos_site_id
 _symmetry_equiv_pos_as_xyz
  1  'x, y, z'
loop_
 _atom_type_symbol
 _atom_type_oxidation_number
  Fe2+  2.0
  Fe3+  3.0
  O2-  -2.0
loop_
 _atom_site_type_symbol
 _atom_site_label
 _atom_site_symmetry_multiplicity
 _atom_site_fract_x
 _atom_site_fract_y
 _atom_site_fract_z
 _atom_site_occupancy
  Fe2+  Fe0  1  0.06456500  0.50000000  0.75000000  1
  Fe2+  Fe1  1  0.50000000  0.50000000  0.50000000  1
  Fe2+  Fe2  1  0.93543500  0.50000000  0.25000000  1
  Fe2+  Fe3  1  0.50000000  0.00000000  0.50000000  1
  Fe2+  Fe4  1  0.93543500  0.00000000  0.25000000  1
  Fe2+  Fe5  1  0.06456500  0.00000000  0.75000000  1
  Fe2+  Fe6  1  0.50000000  0.00000000  0.00000000  1
  Fe2+  Fe7  1  0.50000000  0.50000000  0.00000000  1
  Fe3+  Fe8  1  0.76746800  0.25000000  0.40224700  1
  Fe3+  Fe9  1  0.73646500  0.25000000  0.84499200  1
  Fe3+  Fe10  1  0.51046500  0.75000000  0.85282300  1
  Fe3+  Fe11  1  0.26353500  0.75000000  0.15500800  1
  Fe3+  Fe12  1  0.98084800  0.75000000  0.39863400  1
  Fe3+  Fe13  1  0.73646500  0.75000000  0.65500800  1
  Fe3+  Fe14  1  0.76746800  0.75000000  0.09775300  1
  Fe3+  Fe15  1  0.48953500  0.75000000  0.35282300  1
  Fe3+  Fe16  1  0.51046500  0.25000000  0.64717700  1
  Fe3+  Fe17  1  0.23253200  0.75000000  0.59775300  1
  Fe3+  Fe18  1  0.23253200  0.25000000  0.90224700  1
  Fe3+  Fe19  1  0.01915200  0.75000000  0.89863400  1
  Fe3+  Fe20  1  0.98084800  0.25000000  0.10136600  1
  Fe3+  Fe21  1  0.26353500  0.25000000  0.34499200  1
  Fe3+  Fe22  1  0.01915200  0.25000000  0.60136600  1
  Fe3+  Fe23  1  0.48953500  0.25000000  0.14717700  1
  O2-  O24  1  0.99143900  0.55177200  0.62494000  1
  O2-  O25  1  0.70468400  0.25000000  0.03435700  1
  O2-  O26  1  0.24138000  0.75000000  0.78815600  1
  O2-  O27  1  0.50617200  0.55464300  0.12745300  1
  O2-  O28  1  0.99143900  0.44822800  0.87506000  1
  O2-  O29  1  0.29531600  0.75000000  0.96564300  1
  O2-  O30  1  0.99143900  0.94822800  0.62494000  1
  O2-  O31  1  0.77917600  0.25000000  0.72381500  1
  O2-  O32  1  0.75862000  0.75000000  0.28815600  1
  O2-  O33  1  0.75862000  0.25000000  0.21184400  1
  O2-  O34  1  0.74897600  0.25000000  0.52597800  1
  O2-  O35  1  0.49382800  0.55464300  0.62745300  1
  O2-  O36  1  0.50617200  0.05464300  0.37254700  1
  O2-  O37  1  0.00856100  0.55177200  0.12494000  1
  O2-  O38  1  0.22082400  0.75000000  0.27618500  1
  O2-  O39  1  0.29531600  0.25000000  0.53435700  1
  O2-  O40  1  0.25102400  0.25000000  0.02597800  1
  O2-  O41  1  0.70468400  0.75000000  0.46564300  1
  O2-  O42  1  0.49382800  0.94535700  0.62745300  1
  O2-  O43  1  0.00856100  0.94822800  0.12494000  1
  O2-  O44  1  0.00856100  0.44822800  0.37506000  1
  O2-  O45  1  0.00856100  0.05177200  0.37506000  1
  O2-  O46  1  0.74897600  0.75000000  0.97402200  1
  O2-  O47  1  0.50617200  0.94535700  0.12745300  1
  O2-  O48  1  0.49382800  0.05464300  0.87254700  1
  O2-  O49  1  0.25102400  0.75000000  0.47402200  1
  O2-  O50  1  0.22082400  0.25000000  0.22381500  1
  O2-  O51  1  0.50617200  0.44535700  0.37254700  1
  O2-  O52  1  0.99143900  0.05177200  0.87506000  1
  O2-  O53  1  0.77917600  0.75000000  0.77618500  1
  O2-  O54  1  0.24138000  0.25000000  0.71184400  1
  O2-  O55  1  0.49382800  0.44535700  0.87254700  1
