# generated using pymatgen
data_Fe3O4
_symmetry_space_group_name_H-M   'P 1'
_cell_length_a   6.12170444
_cell_length_b   6.00711300
_cell_length_c   8.50923212
_cell_angle_alpha   90.00000000
_cell_angle_beta   90.50376525
_cell_angle_gamma   90.00000000
_symmetry_Int_Tables_number   1
_chemical_formula_structural   Fe3O4
_chemical_formula_sum   'Fe12 O16'
_cell_volume   312.90445265
_cell_formula_units_Z   4
loop_
 _symmetry_equiv_pos_site_id
 _symmetry_equiv_pos_as_xyz
  1  'x, y, z'
loop_
 _atom_type_symbol
 _atom_type_oxidation_number
  Fe2+  2.0
  Fe3+  3.0
  O2-  -2.0
loop_
 _atom_site_type_symbol
 _atom_site_label
 _atom_site_symmetry_multiplicity
 _atom_site_fract_x
 _atom_site_fract_y
 _atom_site_fract_z
 _atom_site_occupancy
  Fe2+  Fe0  1  0.25133900  0.25332100  0.24809300  1
  Fe2+  Fe1  1  0.74866100  0.25332100  0.75190700  1
  Fe2+  Fe2  1  0.74866100  0.74667900  0.75190700  1
  Fe2+  Fe3  1  0.25133900  0.74667900  0.24809300  1
  Fe3+  Fe4  1  0.25545500  0.00000000  0.87172200  1
  Fe3+  Fe5  1  0.74454500  0.00000000  0.12827800  1
  Fe3+  Fe6  1  0.50000000  0.00000000  0.50000000  1
  Fe3+  Fe7  1  0.50000000  0.50000000  0.00000000  1
  Fe3+  Fe8  1  0.00000000  0.50000000  0.00000000  1
  Fe3+  Fe9  1  0.00000000  0.00000000  0.50000000  1
  Fe3+  Fe10  1  0.24199000  0.50000000  0.62390400  1
  Fe3+  Fe11  1  0.75801000  0.50000000  0.37609600  1
  O2-  O12  1  0.26151900  0.25853900  0.00794600  1
  O2-  O13  1  0.73848100  0.25853900  0.99205400  1
  O2-  O14  1  0.73848100  0.74146100  0.99205400  1
  O2-  O15  1  0.26151900  0.74146100  0.00794600  1
  O2-  O16  1  0.23822500  0.23944700  0.49358100  1
  O2-  O17  1  0.76177500  0.23944700  0.50641900  1
  O2-  O18  1  0.76177500  0.76055300  0.50641900  1
  O2-  O19  1  0.23822500  0.76055300  0.49358100  1
  O2-  O20  1  0.99019200  0.50000000  0.75625200  1
  O2-  O21  1  0.00980800  0.50000000  0.24374800  1
  O2-  O22  1  0.49747700  0.50000000  0.24149200  1
  O2-  O23  1  0.50252300  0.50000000  0.75850800  1
  O2-  O24  1  0.51119900  0.00000000  0.74598200  1
  O2-  O25  1  0.48880100  0.00000000  0.25401800  1
  O2-  O26  1  0.00915700  0.00000000  0.25639700  1
  O2-  O27  1  0.99084300  0.00000000  0.74360300  1
