# generated using pymatgen
data_Fe3O4
_symmetry_space_group_name_H-M   'P 1'
_cell_length_a   9.86818600
_cell_length_b   2.93317600
_cell_length_c   9.99333573
_cell_angle_alpha   90.00000000
_cell_angle_beta   90.03367799
_cell_angle_gamma   90.00000000
_symmetry_Int_Tables_number   1
_chemical_formula_structural   Fe3O4
_chemical_formula_sum   'Fe12 O16'
_cell_volume   289.25831518
_cell_formula_units_Z   4
loop_
 _symmetry_equiv_pos_site_id
 _symmetry_equiv_pos_as_xyz
  1  'x, y, z'
loop_
 _atom_type_symbol
 _atom_type_oxidation_number
  Fe2+  2.0
  Fe3+  3.0
  O2-  -2.0
loop_
 _atom_site_type_symbol
 _atom_site_label
 _atom_site_symmetry_multiplicity
 _atom_site_fract_x
 _atom_site_fract_y
 _atom_site_fract_z
 _atom_site_occupancy
  Fe2+  Fe0  1  0.13236600  0.27192800  0.73717700  1
  Fe2+  Fe1  1  0.63236600  0.72807200  0.73717700  1
  Fe2+  Fe2  1  0.11730000  0.75163600  0.42488300  1
  Fe2+  Fe3  1  0.61730000  0.24836400  0.42488300  1
  Fe3+  Fe4  1  0.36985600  0.26018400  0.26087700  1
  Fe3+  Fe5  1  0.86985600  0.73981600  0.26087700  1
  Fe3+  Fe6  1  0.87695900  0.23936000  0.57463300  1
  Fe3+  Fe7  1  0.37695900  0.76064000  0.57463300  1
  Fe3+  Fe8  1  0.38355400  0.76090300  0.92377100  1
  Fe3+  Fe9  1  0.12148300  0.75054900  0.07116200  1
  Fe3+  Fe10  1  0.88355400  0.23909700  0.92377100  1
  Fe3+  Fe11  1  0.62148300  0.24945100  0.07116200  1
  O2-  O12  1  0.46084800  0.75723600  0.37739700  1
  O2-  O13  1  0.02113500  0.73950300  0.89056600  1
  O2-  O14  1  0.48053700  0.75354000  0.11865500  1
  O2-  O15  1  0.96084800  0.24276400  0.37739700  1
  O2-  O16  1  0.52113500  0.26049700  0.89056600  1
  O2-  O17  1  0.98053700  0.24646000  0.11865500  1
  O2-  O18  1  0.51769700  0.25694100  0.61260700  1
  O2-  O19  1  0.01769700  0.74305900  0.61260700  1
  O2-  O20  1  0.22540600  0.75883100  0.24580200  1
  O2-  O21  1  0.78700000  0.22475300  0.75374200  1
  O2-  O22  1  0.28700000  0.77524700  0.75374200  1
  O2-  O23  1  0.72540600  0.24116900  0.24580200  1
  O2-  O24  1  0.75162900  0.74381500  0.00382400  1
  O2-  O25  1  0.25422800  0.25900900  0.50490300  1
  O2-  O26  1  0.75422800  0.74099100  0.50490300  1
  O2-  O27  1  0.25162900  0.25618500  0.00382400  1
