# generated using pymatgen
data_Fe3O4
_symmetry_space_group_name_H-M   'P 1'
_cell_length_a   6.08817200
_cell_length_b   6.08913800
_cell_length_c   17.29273300
_cell_angle_alpha   90.00000000
_cell_angle_beta   90.00000000
_cell_angle_gamma   90.00000000
_symmetry_Int_Tables_number   1
_chemical_formula_structural   Fe3O4
_chemical_formula_sum   'Fe24 O32'
_cell_volume   641.07134674
_cell_formula_units_Z   8
loop_
 _symmetry_equiv_pos_site_id
 _symmetry_equiv_pos_as_xyz
  1  'x, y, z'
loop_
 _atom_type_symbol
 _atom_type_oxidation_number
  Fe2+  2.0
  Fe3+  3.0
  O2-  -2.0
loop_
 _atom_site_type_symbol
 _atom_site_label
 _atom_site_symmetry_multiplicity
 _atom_site_fract_x
 _atom_site_fract_y
 _atom_site_fract_z
 _atom_site_occupancy
  Fe2+  Fe0  1  0.99801500  0.50000000  0.93680400  1
  Fe2+  Fe1  1  0.50731100  0.50000000  0.31486300  1
  Fe2+  Fe2  1  0.00198500  0.50000000  0.43680400  1
  Fe2+  Fe3  1  0.50025000  0.25105400  0.50129700  1
  Fe2+  Fe4  1  0.49268900  0.50000000  0.81486300  1
  Fe2+  Fe5  1  0.50025000  0.74894600  0.50129700  1
  Fe2+  Fe6  1  0.49975000  0.25105400  0.00129700  1
  Fe2+  Fe7  1  0.49975000  0.74894600  0.00129700  1
  Fe3+  Fe8  1  0.50650400  0.00000000  0.19004100  1
  Fe3+  Fe9  1  0.24563200  0.50000000  0.62377100  1
  Fe3+  Fe10  1  0.75445900  0.00000000  0.37536500  1
  Fe3+  Fe11  1  0.49349600  0.00000000  0.69004100  1
  Fe3+  Fe12  1  0.99910900  0.00000000  0.56170600  1
  Fe3+  Fe13  1  0.00839200  0.74656100  0.24943700  1
  Fe3+  Fe14  1  0.74180400  0.50000000  0.62196000  1
  Fe3+  Fe15  1  0.74150400  0.00000000  0.87736300  1
  Fe3+  Fe16  1  0.25819600  0.50000000  0.12196000  1
  Fe3+  Fe17  1  0.25849600  0.00000000  0.37736300  1
  Fe3+  Fe18  1  0.75436800  0.50000000  0.12377100  1
  Fe3+  Fe19  1  0.00089100  0.00000000  0.06170600  1
  Fe3+  Fe20  1  0.99160800  0.25343900  0.74943700  1
  Fe3+  Fe21  1  0.99160800  0.74656100  0.74943700  1
  Fe3+  Fe22  1  0.24554100  0.00000000  0.87536500  1
  Fe3+  Fe23  1  0.00839200  0.25343900  0.24943700  1
  O2-  O24  1  0.99585900  0.26299200  0.62857900  1
  O2-  O25  1  0.00577900  0.77427300  0.36551600  1
  O2-  O26  1  0.49454200  0.73423900  0.62910600  1
  O2-  O27  1  0.99422100  0.77427300  0.86551600  1
  O2-  O28  1  0.76149600  0.00000000  0.75161900  1
  O2-  O29  1  0.77132300  0.50000000  0.74218300  1
  O2-  O30  1  0.50633900  0.78023300  0.37508100  1
  O2-  O31  1  0.22867700  0.50000000  0.24218300  1
  O2-  O32  1  0.49366100  0.21976700  0.87508100  1
  O2-  O33  1  0.75230600  0.00000000  0.99497100  1
  O2-  O34  1  0.50633900  0.21976700  0.37508100  1
  O2-  O35  1  0.25188200  0.00000000  0.99526100  1
  O2-  O36  1  0.21511500  0.50000000  0.74215100  1
  O2-  O37  1  0.99585900  0.73700800  0.62857900  1
  O2-  O38  1  0.24769400  0.00000000  0.49497100  1
  O2-  O39  1  0.78488500  0.50000000  0.24215100  1
  O2-  O40  1  0.77488800  0.00000000  0.25166700  1
  O2-  O41  1  0.22511200  0.00000000  0.75166700  1
  O2-  O42  1  0.25458100  0.50000000  0.00995900  1
  O2-  O43  1  0.49454200  0.26576100  0.62910600  1
  O2-  O44  1  0.74811800  0.00000000  0.49526100  1
  O2-  O45  1  0.00414100  0.26299200  0.12857900  1
  O2-  O46  1  0.74541900  0.50000000  0.50995900  1
  O2-  O47  1  0.49366100  0.78023300  0.87508100  1
  O2-  O48  1  0.26342000  0.50000000  0.51048100  1
  O2-  O49  1  0.99422100  0.22572700  0.86551600  1
  O2-  O50  1  0.00577900  0.22572700  0.36551600  1
  O2-  O51  1  0.50545800  0.26576100  0.12910600  1
  O2-  O52  1  0.50545800  0.73423900  0.12910600  1
  O2-  O53  1  0.73658000  0.50000000  0.01048100  1
  O2-  O54  1  0.00414100  0.73700800  0.12857900  1
  O2-  O55  1  0.23850400  0.00000000  0.25161900  1
