# generated using pymatgen
data_Fe3O4
_symmetry_space_group_name_H-M   'P 1'
_cell_length_a   6.03521650
_cell_length_b   6.04656255
_cell_length_c   10.49934468
_cell_angle_alpha   90.21739512
_cell_angle_beta   106.43932295
_cell_angle_gamma   119.77440423
_symmetry_Int_Tables_number   1
_chemical_formula_structural   Fe3O4
_chemical_formula_sum   'Fe12 O16'
_cell_volume   314.14005150
_cell_formula_units_Z   4
loop_
 _symmetry_equiv_pos_site_id
 _symmetry_equiv_pos_as_xyz
  1  'x, y, z'
loop_
 _atom_type_symbol
 _atom_type_oxidation_number
  Fe2+  2.0
  Fe3+  3.0
  O2-  -2.0
loop_
 _atom_site_type_symbol
 _atom_site_label
 _atom_site_symmetry_multiplicity
 _atom_site_fract_x
 _atom_site_fract_y
 _atom_site_fract_z
 _atom_site_occupancy
  Fe2+  Fe0  1  0.50000000  0.50000000  0.00000000  1
  Fe2+  Fe1  1  0.50000000  0.00000000  0.50000000  1
  Fe2+  Fe2  1  0.50000000  0.50000000  0.50000000  1
  Fe2+  Fe3  1  0.00000000  0.50000000  0.00000000  1
  Fe3+  Fe4  1  0.50000000  0.00000000  0.00000000  1
  Fe3+  Fe5  1  0.00000000  0.00000000  0.50000000  1
  Fe3+  Fe6  1  0.49596100  0.74638300  0.25081900  1
  Fe3+  Fe7  1  0.50403900  0.25361700  0.74918100  1
  Fe3+  Fe8  1  0.12408700  0.06445600  0.19038800  1
  Fe3+  Fe9  1  0.12798600  0.56695000  0.69120800  1
  Fe3+  Fe10  1  0.87591300  0.93554400  0.80961200  1
  Fe3+  Fe11  1  0.87201400  0.43305000  0.30879200  1
  O2-  O12  1  0.24530500  0.12339900  0.38386200  1
  O2-  O13  1  0.25937300  0.64151000  0.88304500  1
  O2-  O14  1  0.75469500  0.87660100  0.61613800  1
  O2-  O15  1  0.74062700  0.35849000  0.11695500  1
  O2-  O16  1  0.75407900  0.10717600  0.37568300  1
  O2-  O17  1  0.73085300  0.60761400  0.87057900  1
  O2-  O18  1  0.74000000  0.36910000  0.63193800  1
  O2-  O19  1  0.73319600  0.87781300  0.12317800  1
  O2-  O20  1  0.26000000  0.63090000  0.36806200  1
  O2-  O21  1  0.26680400  0.12218700  0.87682200  1
  O2-  O22  1  0.24490600  0.35348300  0.62604500  1
  O2-  O23  1  0.27193800  0.88024600  0.12618900  1
  O2-  O24  1  0.24592100  0.89282400  0.62431700  1
  O2-  O25  1  0.26914700  0.39238600  0.12942100  1
  O2-  O26  1  0.75509400  0.64651700  0.37395500  1
  O2-  O27  1  0.72806200  0.11975400  0.87381100  1
