# generated using pymatgen
data_Fe4O13
_symmetry_space_group_name_H-M   'P 1'
_cell_length_a   6.91320800
_cell_length_b   6.92405800
_cell_length_c   7.24822000
_cell_angle_alpha   90.00000000
_cell_angle_beta   90.00000000
_cell_angle_gamma   90.00000000
_symmetry_Int_Tables_number   1
_chemical_formula_structural   Fe4O13
_chemical_formula_sum   'Fe8 O26'
_cell_volume   346.95383133
_cell_formula_units_Z   2
loop_
 _symmetry_equiv_pos_site_id
 _symmetry_equiv_pos_as_xyz
  1  'x, y, z'
loop_
 _atom_site_type_symbol
 _atom_site_label
 _atom_site_symmetry_multiplicity
 _atom_site_fract_x
 _atom_site_fract_y
 _atom_site_fract_z
 _atom_site_occupancy
  Fe  Fe0  1  0.25000000  0.25000000  0.75000000  1
  Fe  Fe1  1  0.25000000  0.75000000  0.25000000  1
  Fe  Fe2  1  0.75000000  0.25000000  0.25000000  1
  Fe  Fe3  1  0.25000000  0.25000000  0.25000000  1
  Fe  Fe4  1  0.75000000  0.75000000  0.25000000  1
  Fe  Fe5  1  0.75000000  0.25000000  0.75000000  1
  Fe  Fe6  1  0.25000000  0.75000000  0.75000000  1
  Fe  Fe7  1  0.75000000  0.75000000  0.75000000  1
  O  O8  1  0.00000000  0.64315300  0.19962100  1
  O  O9  1  0.50000000  0.85684700  0.30037900  1
  O  O10  1  0.50000000  0.14315300  0.30037900  1
  O  O11  1  0.00000000  0.35684700  0.19962100  1
  O  O12  1  0.15820000  0.15626300  0.50000000  1
  O  O13  1  0.15820000  0.84373700  0.50000000  1
  O  O14  1  0.34180000  0.65626300  0.00000000  1
  O  O15  1  0.34180000  0.34373700  0.00000000  1
  O  O16  1  0.84851400  0.00000000  0.15017500  1
  O  O17  1  0.34851400  0.50000000  0.34982500  1
  O  O18  1  0.65148600  0.50000000  0.34982500  1
  O  O19  1  0.15148600  0.00000000  0.15017500  1
  O  O20  1  0.50000000  0.00000000  0.00000000  1
  O  O21  1  0.50000000  0.14315300  0.69962100  1
  O  O22  1  0.00000000  0.35684700  0.80037900  1
  O  O23  1  0.00000000  0.64315300  0.80037900  1
  O  O24  1  0.50000000  0.85684700  0.69962100  1
  O  O25  1  0.65820000  0.65626300  0.00000000  1
  O  O26  1  0.65820000  0.34373700  0.00000000  1
  O  O27  1  0.84180000  0.15626300  0.50000000  1
  O  O28  1  0.84180000  0.84373700  0.50000000  1
  O  O29  1  0.34851400  0.50000000  0.65017500  1
  O  O30  1  0.84851400  0.00000000  0.84982500  1
  O  O31  1  0.15148600  0.00000000  0.84982500  1
  O  O32  1  0.65148600  0.50000000  0.65017500  1
  O  O33  1  0.00000000  0.50000000  0.50000000  1
