# generated using pymatgen
data_Fe4O13
_symmetry_space_group_name_H-M   'P 1'
_cell_length_a   6.34786800
_cell_length_b   7.68026600
_cell_length_c   8.00311200
_cell_angle_alpha   90.00000000
_cell_angle_beta   90.00000000
_cell_angle_gamma   90.00000000
_symmetry_Int_Tables_number   1
_chemical_formula_structural   Fe4O13
_chemical_formula_sum   'Fe8 O26'
_cell_volume   390.17823850
_cell_formula_units_Z   2
loop_
 _symmetry_equiv_pos_site_id
 _symmetry_equiv_pos_as_xyz
  1  'x, y, z'
loop_
 _atom_site_type_symbol
 _atom_site_label
 _atom_site_symmetry_multiplicity
 _atom_site_fract_x
 _atom_site_fract_y
 _atom_site_fract_z
 _atom_site_occupancy
  Fe  Fe0  1  0.25000000  0.75000000  0.25000000  1
  Fe  Fe1  1  0.25000000  0.25000000  0.25000000  1
  Fe  Fe2  1  0.75000000  0.75000000  0.25000000  1
  Fe  Fe3  1  0.75000000  0.25000000  0.25000000  1
  Fe  Fe4  1  0.75000000  0.25000000  0.75000000  1
  Fe  Fe5  1  0.75000000  0.75000000  0.75000000  1
  Fe  Fe6  1  0.25000000  0.25000000  0.75000000  1
  Fe  Fe7  1  0.25000000  0.75000000  0.75000000  1
  O  O8  1  0.89205800  0.19709900  0.50000000  1
  O  O9  1  0.10794200  0.19709900  0.50000000  1
  O  O10  1  0.89205800  0.80290100  0.50000000  1
  O  O11  1  0.10794200  0.80290100  0.50000000  1
  O  O12  1  0.50000000  0.32157350  0.66287250  1
  O  O13  1  0.50000000  0.32157350  0.33712750  1
  O  O14  1  0.50000000  0.67842650  0.33712750  1
  O  O15  1  0.50000000  0.67842650  0.66287250  1
  O  O16  1  0.50000000  0.00000000  0.50000000  1
  O  O17  1  0.39230100  0.00000000  0.20727300  1
  O  O18  1  0.60769900  0.00000000  0.79272700  1
  O  O19  1  0.39230100  0.00000000  0.79272700  1
  O  O20  1  0.60769900  0.00000000  0.20727300  1
  O  O21  1  0.39205800  0.69709900  0.00000000  1
  O  O22  1  0.60794200  0.69709900  0.00000000  1
  O  O23  1  0.39205800  0.30290100  0.00000000  1
  O  O24  1  0.60794200  0.30290100  0.00000000  1
  O  O25  1  0.00000000  0.82157350  0.16287250  1
  O  O26  1  0.00000000  0.82157350  0.83712750  1
  O  O27  1  0.00000000  0.17842650  0.83712750  1
  O  O28  1  0.00000000  0.17842650  0.16287250  1
  O  O29  1  0.00000000  0.50000000  0.00000000  1
  O  O30  1  0.89230100  0.50000000  0.70727300  1
  O  O31  1  0.10769900  0.50000000  0.29272700  1
  O  O32  1  0.89230100  0.50000000  0.29272700  1
  O  O33  1  0.10769900  0.50000000  0.70727300  1
