# generated using pymatgen
data_Fe5O7
_symmetry_space_group_name_H-M   'P 1'
_cell_length_a   9.74784200
_cell_length_b   2.91424000
_cell_length_c   8.88309894
_cell_angle_alpha   90.00000000
_cell_angle_beta   105.25797379
_cell_angle_gamma   90.00000000
_symmetry_Int_Tables_number   1
_chemical_formula_structural   Fe5O7
_chemical_formula_sum   'Fe10 O14'
_cell_volume   243.45203089
_cell_formula_units_Z   2
loop_
 _symmetry_equiv_pos_site_id
 _symmetry_equiv_pos_as_xyz
  1  'x, y, z'
loop_
 _atom_type_symbol
 _atom_type_oxidation_number
  Fe2+  2.0
  Fe3+  3.0
  O2-  -2.0
loop_
 _atom_site_type_symbol
 _atom_site_label
 _atom_site_symmetry_multiplicity
 _atom_site_fract_x
 _atom_site_fract_y
 _atom_site_fract_z
 _atom_site_occupancy
  Fe2+  Fe0  1  0.00000000  0.00000000  0.00000000  1
  Fe2+  Fe1  1  0.50000000  0.50000000  0.00000000  1
  Fe3+  Fe2  1  0.80541600  0.50000000  0.18410100  1
  Fe3+  Fe3  1  0.69458400  0.00000000  0.81589900  1
  Fe3+  Fe4  1  0.61063800  0.50000000  0.41530700  1
  Fe3+  Fe5  1  0.88936200  0.00000000  0.58469300  1
  Fe3+  Fe6  1  0.30541600  0.00000000  0.18410100  1
  Fe3+  Fe7  1  0.19458400  0.50000000  0.81589900  1
  Fe3+  Fe8  1  0.11063800  0.00000000  0.41530700  1
  Fe3+  Fe9  1  0.38936200  0.50000000  0.58469300  1
  O2-  O10  1  0.53938000  0.50000000  0.78630100  1
  O2-  O11  1  0.96062000  0.00000000  0.21369900  1
  O2-  O12  1  0.76271900  0.50000000  0.63554900  1
  O2-  O13  1  0.73728100  0.00000000  0.36445100  1
  O2-  O14  1  0.84700800  0.50000000  0.94829700  1
  O2-  O15  1  0.65299200  0.00000000  0.05170300  1
  O2-  O16  1  0.00000000  0.50000000  0.50000000  1
  O2-  O17  1  0.03938000  0.00000000  0.78630100  1
  O2-  O18  1  0.46062000  0.50000000  0.21369900  1
  O2-  O19  1  0.26271900  0.00000000  0.63554900  1
  O2-  O20  1  0.23728100  0.50000000  0.36445100  1
  O2-  O21  1  0.34700800  0.00000000  0.94829700  1
  O2-  O22  1  0.15299200  0.50000000  0.05170300  1
  O2-  O23  1  0.50000000  0.00000000  0.50000000  1
