# generated using pymatgen
data_Fe5O8
_symmetry_space_group_name_H-M   'P 1'
_cell_length_a   6.03128786
_cell_length_b   6.03128786
_cell_length_c   14.36531960
_cell_angle_alpha   90.00000000
_cell_angle_beta   90.00000000
_cell_angle_gamma   120.00000000
_symmetry_Int_Tables_number   1
_chemical_formula_structural   Fe5O8
_chemical_formula_sum   'Fe15 O24'
_cell_volume   452.54944715
_cell_formula_units_Z   3
loop_
 _symmetry_equiv_pos_site_id
 _symmetry_equiv_pos_as_xyz
  1  'x, y, z'
loop_
 _atom_site_type_symbol
 _atom_site_label
 _atom_site_symmetry_multiplicity
 _atom_site_fract_x
 _atom_site_fract_y
 _atom_site_fract_z
 _atom_site_occupancy
  Fe  Fe0  1  0.33333333  0.66666667  0.78485767  1
  Fe  Fe1  1  0.33333333  0.66666667  0.54847567  1
  Fe  Fe2  1  0.00000000  0.50000000  0.00000000  1
  Fe  Fe3  1  0.16666667  0.33333333  0.33333333  1
  Fe  Fe4  1  0.50000000  0.50000000  0.00000000  1
  Fe  Fe5  1  0.00000000  0.00000000  0.11819100  1
  Fe  Fe6  1  0.00000000  0.00000000  0.88180900  1
  Fe  Fe7  1  0.66666667  0.83333333  0.33333333  1
  Fe  Fe8  1  0.83333333  0.66666667  0.66666667  1
  Fe  Fe9  1  0.16666667  0.83333333  0.33333333  1
  Fe  Fe10  1  0.66666667  0.33333333  0.45152433  1
  Fe  Fe11  1  0.66666667  0.33333333  0.21514233  1
  Fe  Fe12  1  0.33333333  0.16666667  0.66666667  1
  Fe  Fe13  1  0.50000000  0.00000000  0.00000000  1
  Fe  Fe14  1  0.83333333  0.16666667  0.66666667  1
  O  O15  1  0.33333333  0.66666667  0.92193667  1
  O  O16  1  0.65618000  0.82809000  0.07448700  1
  O  O17  1  0.17191000  0.34382000  0.07448700  1
  O  O18  1  0.17191000  0.82809000  0.07448700  1
  O  O19  1  0.33333333  0.66666667  0.41139667  1
  O  O20  1  0.01048667  0.50524333  0.25884633  1
  O  O21  1  0.49475667  0.98951333  0.25884633  1
  O  O22  1  0.49475667  0.50524333  0.25884633  1
  O  O23  1  0.00000000  0.00000000  0.25527000  1
  O  O24  1  0.32284667  0.16142333  0.40782033  1
  O  O25  1  0.83857667  0.67715333  0.40782033  1
  O  O26  1  0.83857667  0.16142333  0.40782033  1
  O  O27  1  0.00000000  0.00000000  0.74473000  1
  O  O28  1  0.67715333  0.83857667  0.59217967  1
  O  O29  1  0.16142333  0.32284667  0.59217967  1
  O  O30  1  0.16142333  0.83857667  0.59217967  1
  O  O31  1  0.66666667  0.33333333  0.58860333  1
  O  O32  1  0.98951333  0.49475667  0.74115367  1
  O  O33  1  0.50524333  0.01048667  0.74115367  1
  O  O34  1  0.50524333  0.49475667  0.74115367  1
  O  O35  1  0.66666667  0.33333333  0.07806333  1
  O  O36  1  0.34382000  0.17191000  0.92551300  1
  O  O37  1  0.82809000  0.65618000  0.92551300  1
  O  O38  1  0.82809000  0.17191000  0.92551300  1
