# generated using pymatgen
data_Fe9O13
_symmetry_space_group_name_H-M   'P 1'
_cell_length_a   9.95940000
_cell_length_b   2.98118000
_cell_length_c   17.69978898
_cell_angle_alpha   90.00000000
_cell_angle_beta   98.12774746
_cell_angle_gamma   90.00000000
_symmetry_Int_Tables_number   1
_chemical_formula_structural   Fe9O13
_chemical_formula_sum   'Fe18 O26'
_cell_volume   520.24156842
_cell_formula_units_Z   2
loop_
 _symmetry_equiv_pos_site_id
 _symmetry_equiv_pos_as_xyz
  1  'x, y, z'
loop_
 _atom_type_symbol
 _atom_type_oxidation_number
  Fe2+  2.0
  Fe3+  3.0
  O2-  -2.0
loop_
 _atom_site_type_symbol
 _atom_site_label
 _atom_site_symmetry_multiplicity
 _atom_site_fract_x
 _atom_site_fract_y
 _atom_site_fract_z
 _atom_site_occupancy
  Fe2+  Fe0  1  0.00000000  0.50000000  0.50000000  1
  Fe2+  Fe1  1  0.50000000  0.00000000  0.50000000  1
  Fe3+  Fe2  1  0.85537400  0.50000000  0.95611400  1
  Fe3+  Fe3  1  0.64462600  0.00000000  0.04388600  1
  Fe3+  Fe4  1  0.75218100  0.50000000  0.58479700  1
  Fe3+  Fe5  1  0.74781900  0.00000000  0.41520300  1
  Fe3+  Fe6  1  0.56392800  0.50000000  0.86609900  1
  Fe3+  Fe7  1  0.93607200  0.00000000  0.13390100  1
  Fe3+  Fe8  1  0.51284000  0.50000000  0.67835900  1
  Fe3+  Fe9  1  0.98716000  0.00000000  0.32164100  1
  Fe3+  Fe10  1  0.35537400  0.00000000  0.95611400  1
  Fe3+  Fe11  1  0.14462600  0.50000000  0.04388600  1
  Fe3+  Fe12  1  0.25218100  0.00000000  0.58479700  1
  Fe3+  Fe13  1  0.24781900  0.50000000  0.41520300  1
  Fe3+  Fe14  1  0.06392800  0.00000000  0.86609900  1
  Fe3+  Fe15  1  0.43607200  0.50000000  0.13390100  1
  Fe3+  Fe16  1  0.01284000  0.00000000  0.67835900  1
  Fe3+  Fe17  1  0.48716000  0.50000000  0.32164100  1
  O2-  O18  1  0.00000000  0.00000000  0.00000000  1
  O2-  O19  1  0.61104200  0.50000000  0.77163500  1
  O2-  O20  1  0.88895800  0.00000000  0.22836500  1
  O2-  O21  1  0.71022000  0.00000000  0.93261000  1
  O2-  O22  1  0.78978000  0.50000000  0.06739000  1
  O2-  O23  1  0.93880700  0.50000000  0.86719800  1
  O2-  O24  1  0.56119300  0.00000000  0.13280200  1
  O2-  O25  1  0.88503400  0.50000000  0.67339500  1
  O2-  O26  1  0.61496600  0.00000000  0.32660500  1
  O2-  O27  1  0.61272400  0.00000000  0.60744700  1
  O2-  O28  1  0.88727600  0.50000000  0.39255300  1
  O2-  O29  1  0.86888900  0.00000000  0.52537100  1
  O2-  O30  1  0.63111100  0.50000000  0.47462900  1
  O2-  O31  1  0.50000000  0.50000000  0.00000000  1
  O2-  O32  1  0.11104200  0.00000000  0.77163500  1
  O2-  O33  1  0.38895800  0.50000000  0.22836500  1
  O2-  O34  1  0.21022000  0.50000000  0.93261000  1
  O2-  O35  1  0.28978000  0.00000000  0.06739000  1
  O2-  O36  1  0.43880700  0.00000000  0.86719800  1
  O2-  O37  1  0.06119300  0.50000000  0.13280200  1
  O2-  O38  1  0.38503400  0.00000000  0.67339500  1
  O2-  O39  1  0.11496600  0.50000000  0.32660500  1
  O2-  O40  1  0.11272400  0.50000000  0.60744700  1
  O2-  O41  1  0.38727600  0.00000000  0.39255300  1
  O2-  O42  1  0.36888900  0.50000000  0.52537100  1
  O2-  O43  1  0.13111100  0.00000000  0.47462900  1
