# generated using pymatgen
data_FeO2
_symmetry_space_group_name_H-M   'P 1'
_cell_length_a   5.95989211
_cell_length_b   5.95989211
_cell_length_c   14.36318500
_cell_angle_alpha   90.00000000
_cell_angle_beta   90.00000000
_cell_angle_gamma   120.00000000
_symmetry_Int_Tables_number   1
_chemical_formula_structural   FeO2
_chemical_formula_sum   'Fe12 O24'
_cell_volume   441.83303231
_cell_formula_units_Z   12
loop_
 _symmetry_equiv_pos_site_id
 _symmetry_equiv_pos_as_xyz
  1  'x, y, z'
loop_
 _atom_site_type_symbol
 _atom_site_label
 _atom_site_symmetry_multiplicity
 _atom_site_fract_x
 _atom_site_fract_y
 _atom_site_fract_z
 _atom_site_occupancy
  Fe  Fe0  1  0.32397200  0.16198600  0.16743700  1
  Fe  Fe1  1  0.83801400  0.67602800  0.16743700  1
  Fe  Fe2  1  0.98979400  0.49489700  0.49933900  1
  Fe  Fe3  1  0.83801400  0.16198600  0.16743700  1
  Fe  Fe4  1  0.50510300  0.01020600  0.49933900  1
  Fe  Fe5  1  0.33333333  0.66666667  0.66622600  1
  Fe  Fe6  1  0.33333333  0.66666667  0.28225200  1
  Fe  Fe7  1  0.66857600  0.83428800  0.83454100  1
  Fe  Fe8  1  0.50510300  0.49489700  0.49933900  1
  Fe  Fe9  1  0.16571200  0.33142400  0.83454100  1
  Fe  Fe10  1  0.16571200  0.83428800  0.83454100  1
  Fe  Fe11  1  0.66666667  0.33333333  0.95522500  1
  O  O12  1  0.70161100  0.85080550  0.09985700  1
  O  O13  1  0.00000000  0.00000000  0.24473800  1
  O  O14  1  0.14919450  0.29838900  0.09985700  1
  O  O15  1  0.14919450  0.85080550  0.09985700  1
  O  O16  1  0.35907300  0.17953650  0.43756100  1
  O  O17  1  0.50807800  0.49192200  0.23722200  1
  O  O18  1  0.66666667  0.33333333  0.57667500  1
  O  O19  1  0.50807800  0.01615600  0.23722200  1
  O  O20  1  0.66666667  0.33333333  0.08973300  1
  O  O21  1  0.82046350  0.64092700  0.43756100  1
  O  O22  1  0.82046350  0.17953650  0.43756100  1
  O  O23  1  0.98384400  0.49192200  0.23722200  1
  O  O24  1  0.04678600  0.52339300  0.74689600  1
  O  O25  1  0.19158900  0.80841100  0.57652200  1
  O  O26  1  0.19158900  0.38317800  0.57652200  1
  O  O27  1  0.33333333  0.66666667  0.90272900  1
  O  O28  1  0.33333333  0.66666667  0.41826300  1
  O  O29  1  0.47660700  0.95321400  0.74689600  1
  O  O30  1  0.47660700  0.52339300  0.74689600  1
  O  O31  1  0.61682200  0.80841100  0.57652200  1
  O  O32  1  0.83369800  0.16630200  0.90327100  1
  O  O33  1  0.83369800  0.66739600  0.90327100  1
  O  O34  1  0.00000000  0.00000000  0.76694500  1
  O  O35  1  0.33260400  0.16630200  0.90327100  1
