# generated using pymatgen
data_FeO2
_symmetry_space_group_name_H-M   'P 1'
_cell_length_a   5.90801200
_cell_length_b   6.00949600
_cell_length_c   8.31116400
_cell_angle_alpha   90.00000000
_cell_angle_beta   90.00000000
_cell_angle_gamma   90.00000000
_symmetry_Int_Tables_number   1
_chemical_formula_structural   FeO2
_chemical_formula_sum   'Fe8 O16'
_cell_volume   295.08101680
_cell_formula_units_Z   8
loop_
 _symmetry_equiv_pos_site_id
 _symmetry_equiv_pos_as_xyz
  1  'x, y, z'
loop_
 _atom_site_type_symbol
 _atom_site_label
 _atom_site_symmetry_multiplicity
 _atom_site_fract_x
 _atom_site_fract_y
 _atom_site_fract_z
 _atom_site_occupancy
  Fe  Fe0  1  0.75000000  0.25000000  0.25000000  1
  Fe  Fe1  1  0.00000000  0.00000000  0.50000000  1
  Fe  Fe2  1  0.50000000  0.00000000  0.00000000  1
  Fe  Fe3  1  0.25000000  0.25000000  0.25000000  1
  Fe  Fe4  1  0.25000000  0.75000000  0.75000000  1
  Fe  Fe5  1  0.50000000  0.50000000  0.00000000  1
  Fe  Fe6  1  0.00000000  0.50000000  0.50000000  1
  Fe  Fe7  1  0.75000000  0.75000000  0.75000000  1
  O  O8  1  0.22596100  0.75000000  0.52292600  1
  O  O9  1  0.00000000  0.96963300  0.73857400  1
  O  O10  1  0.77403900  0.75000000  0.52292600  1
  O  O11  1  0.50000000  0.03036700  0.23857400  1
  O  O12  1  0.22596100  0.25000000  0.47707400  1
  O  O13  1  0.50000000  0.96963300  0.76142600  1
  O  O14  1  0.00000000  0.03036700  0.26142600  1
  O  O15  1  0.77403900  0.25000000  0.47707400  1
  O  O16  1  0.72596100  0.25000000  0.02292600  1
  O  O17  1  0.50000000  0.46963300  0.23857400  1
  O  O18  1  0.27403900  0.25000000  0.02292600  1
  O  O19  1  0.00000000  0.53036700  0.73857400  1
  O  O20  1  0.72596100  0.75000000  0.97707400  1
  O  O21  1  0.00000000  0.46963300  0.26142600  1
  O  O22  1  0.50000000  0.53036700  0.76142600  1
  O  O23  1  0.27403900  0.75000000  0.97707400  1
