# generated using pymatgen
data_FeO2
_symmetry_space_group_name_H-M   'P 1'
_cell_length_a   10.08321200
_cell_length_b   6.04089200
_cell_length_c   14.31061522
_cell_angle_alpha   90.00000000
_cell_angle_beta   91.68638858
_cell_angle_gamma   90.00000000
_symmetry_Int_Tables_number   1
_chemical_formula_structural   FeO2
_chemical_formula_sum   'Fe24 O48'
_cell_volume   871.30485080
_cell_formula_units_Z   24
loop_
 _symmetry_equiv_pos_site_id
 _symmetry_equiv_pos_as_xyz
  1  'x, y, z'
loop_
 _atom_site_type_symbol
 _atom_site_label
 _atom_site_symmetry_multiplicity
 _atom_site_fract_x
 _atom_site_fract_y
 _atom_site_fract_z
 _atom_site_occupancy
  Fe  Fe0  1  0.58528100  0.24821700  0.17032500  1
  Fe  Fe1  1  0.99687800  0.00000000  0.37743000  1
  Fe  Fe2  1  0.00150000  0.00000000  0.00540600  1
  Fe  Fe3  1  0.58528100  0.75178300  0.17032500  1
  Fe  Fe4  1  0.25080050  0.24872750  0.49910300  1
  Fe  Fe5  1  0.67172100  0.00000000  0.70530100  1
  Fe  Fe6  1  0.25080050  0.75127250  0.49910300  1
  Fe  Fe7  1  0.41725150  0.75456750  0.82830300  1
  Fe  Fe8  1  0.32913500  0.00000000  0.28849700  1
  Fe  Fe9  1  0.41725150  0.24543250  0.82830300  1
  Fe  Fe10  1  0.00293400  0.00000000  0.62356100  1
  Fe  Fe11  1  0.65938900  0.00000000  0.96097900  1
  Fe  Fe12  1  0.08528100  0.74821700  0.17032500  1
  Fe  Fe13  1  0.49687800  0.50000000  0.37743000  1
  Fe  Fe14  1  0.50150000  0.50000000  0.00540600  1
  Fe  Fe15  1  0.08528100  0.25178300  0.17032500  1
  Fe  Fe16  1  0.75080050  0.74872750  0.49910300  1
  Fe  Fe17  1  0.17172100  0.50000000  0.70530100  1
  Fe  Fe18  1  0.75080050  0.25127250  0.49910300  1
  Fe  Fe19  1  0.91725150  0.25456750  0.82830300  1
  Fe  Fe20  1  0.82913500  0.50000000  0.28849700  1
  Fe  Fe21  1  0.91725150  0.74543250  0.82830300  1
  Fe  Fe22  1  0.50293400  0.50000000  0.62356100  1
  Fe  Fe23  1  0.15938900  0.50000000  0.96097900  1
  O  O24  1  0.44111250  0.28251550  0.08513300  1
  O  O25  1  0.01154400  0.00000000  0.24888000  1
  O  O26  1  0.44111250  0.71748450  0.08513300  1
  O  O27  1  0.15111400  0.00000000  0.08805400  1
  O  O28  1  0.58765850  0.73368550  0.42155700  1
  O  O29  1  0.49894600  0.00000000  0.23647700  1
  O  O30  1  0.67718900  0.00000000  0.57569100  1
  O  O31  1  0.74032550  0.74242750  0.24282800  1
  O  O32  1  0.58765850  0.26631450  0.42155700  1
  O  O33  1  0.65333000  0.00000000  0.09241100  1
  O  O34  1  0.82489100  0.00000000  0.42317100  1
  O  O35  1  0.74032550  0.25757250  0.24282800  1
  O  O36  1  0.75385000  0.23139800  0.75779400  1
  O  O37  1  0.17611900  0.00000000  0.57680800  1
  O  O38  1  0.41107050  0.73313450  0.57809400  1
  O  O39  1  0.75385000  0.76860200  0.75779400  1
  O  O40  1  0.34102500  0.00000000  0.88773900  1
  O  O41  1  0.32075000  0.00000000  0.42112500  1
  O  O42  1  0.50480500  0.00000000  0.75828400  1
  O  O43  1  0.41107050  0.26686550  0.57809400  1
  O  O44  1  0.84467900  0.00000000  0.92055900  1
  O  O45  1  0.56441750  0.26212450  0.92216200  1
  O  O46  1  0.98533700  0.00000000  0.75817400  1
  O  O47  1  0.56441750  0.73787550  0.92216200  1
  O  O48  1  0.94111250  0.78251550  0.08513300  1
  O  O49  1  0.51154400  0.50000000  0.24888000  1
  O  O50  1  0.94111250  0.21748450  0.08513300  1
  O  O51  1  0.65111400  0.50000000  0.08805400  1
  O  O52  1  0.08765850  0.23368550  0.42155700  1
  O  O53  1  0.99894600  0.50000000  0.23647700  1
  O  O54  1  0.17718900  0.50000000  0.57569100  1
  O  O55  1  0.24032550  0.24242750  0.24282800  1
  O  O56  1  0.08765850  0.76631450  0.42155700  1
  O  O57  1  0.15333000  0.50000000  0.09241100  1
  O  O58  1  0.32489100  0.50000000  0.42317100  1
  O  O59  1  0.24032550  0.75757250  0.24282800  1
  O  O60  1  0.25385000  0.73139800  0.75779400  1
  O  O61  1  0.67611900  0.50000000  0.57680800  1
  O  O62  1  0.91107050  0.23313450  0.57809400  1
  O  O63  1  0.25385000  0.26860200  0.75779400  1
  O  O64  1  0.84102500  0.50000000  0.88773900  1
  O  O65  1  0.82075000  0.50000000  0.42112500  1
  O  O66  1  0.00480500  0.50000000  0.75828400  1
  O  O67  1  0.91107050  0.76686550  0.57809400  1
  O  O68  1  0.34467900  0.50000000  0.92055900  1
  O  O69  1  0.06441750  0.76212450  0.92216200  1
  O  O70  1  0.48533700  0.50000000  0.75817400  1
  O  O71  1  0.06441750  0.23787550  0.92216200  1
