# generated using pymatgen
data_FeO2
_symmetry_space_group_name_H-M   'P 1'
_cell_length_a   10.19128800
_cell_length_b   10.19128800
_cell_length_c   2.96512800
_cell_angle_alpha   90.00000000
_cell_angle_beta   90.00000000
_cell_angle_gamma   90.00000000
_symmetry_Int_Tables_number   1
_chemical_formula_structural   FeO2
_chemical_formula_sum   'Fe8 O16'
_cell_volume   307.96516539
_cell_formula_units_Z   8
loop_
 _symmetry_equiv_pos_site_id
 _symmetry_equiv_pos_as_xyz
  1  'x, y, z'
loop_
 _atom_type_symbol
 _atom_type_oxidation_number
  Fe4+  4.0
  O2-  -2.0
loop_
 _atom_site_type_symbol
 _atom_site_label
 _atom_site_symmetry_multiplicity
 _atom_site_fract_x
 _atom_site_fract_y
 _atom_site_fract_z
 _atom_site_occupancy
  Fe4+  Fe0  1  0.35019100  0.83462100  0.00000000  1
  Fe4+  Fe1  1  0.33462100  0.14980900  0.50000000  1
  Fe4+  Fe2  1  0.66537900  0.85019100  0.50000000  1
  Fe4+  Fe3  1  0.64980900  0.16537900  0.00000000  1
  Fe4+  Fe4  1  0.85019100  0.33462100  0.50000000  1
  Fe4+  Fe5  1  0.83462100  0.64980900  0.00000000  1
  Fe4+  Fe6  1  0.16537900  0.35019100  0.00000000  1
  Fe4+  Fe7  1  0.14980900  0.66537900  0.50000000  1
  O2-  O8  1  0.66508450  0.04345450  0.50000000  1
  O2-  O9  1  0.54345450  0.83491550  0.00000000  1
  O2-  O10  1  0.45654550  0.16508450  0.00000000  1
  O2-  O11  1  0.33491550  0.95654550  0.50000000  1
  O2-  O12  1  0.34680000  0.71088600  0.50000000  1
  O2-  O13  1  0.21088600  0.15320000  0.00000000  1
  O2-  O14  1  0.65320000  0.28911400  0.50000000  1
  O2-  O15  1  0.78911400  0.84680000  0.00000000  1
  O2-  O16  1  0.16508450  0.54345450  0.00000000  1
  O2-  O17  1  0.04345450  0.33491550  0.50000000  1
  O2-  O18  1  0.95654550  0.66508450  0.50000000  1
  O2-  O19  1  0.83491550  0.45654550  0.00000000  1
  O2-  O20  1  0.84680000  0.21088600  0.00000000  1
  O2-  O21  1  0.71088600  0.65320000  0.50000000  1
  O2-  O22  1  0.15320000  0.78911400  0.00000000  1
  O2-  O23  1  0.28911400  0.34680000  0.50000000  1
