# generated using pymatgen
data_FeO2
_symmetry_space_group_name_H-M   'P 1'
_cell_length_a   3.04486800
_cell_length_b   11.12858000
_cell_length_c   3.89731400
_cell_angle_alpha   90.00000000
_cell_angle_beta   90.00000000
_cell_angle_gamma   90.00000000
_symmetry_Int_Tables_number   1
_chemical_formula_structural   FeO2
_chemical_formula_sum   'Fe4 O8'
_cell_volume   132.06070753
_cell_formula_units_Z   4
loop_
 _symmetry_equiv_pos_site_id
 _symmetry_equiv_pos_as_xyz
  1  'x, y, z'
loop_
 _atom_type_symbol
 _atom_type_oxidation_number
  Fe3+  3.0
  O2-  -2.0
  O-  -1.0
loop_
 _atom_site_type_symbol
 _atom_site_label
 _atom_site_symmetry_multiplicity
 _atom_site_fract_x
 _atom_site_fract_y
 _atom_site_fract_z
 _atom_site_occupancy
  Fe3+  Fe0  1  0.00000000  0.66239300  0.75000000  1
  Fe3+  Fe1  1  0.50000000  0.83760700  0.25000000  1
  Fe3+  Fe2  1  0.50000000  0.16239300  0.75000000  1
  Fe3+  Fe3  1  0.00000000  0.33760700  0.25000000  1
  O-  O4  1  0.50000000  0.55221500  0.75000000  1
  O-  O5  1  0.00000000  0.94778500  0.25000000  1
  O-  O6  1  0.00000000  0.05221500  0.75000000  1
  O-  O7  1  0.50000000  0.44778500  0.25000000  1
  O2-  O8  1  0.50000000  0.79069900  0.75000000  1
  O2-  O9  1  0.00000000  0.70930100  0.25000000  1
  O2-  O10  1  0.00000000  0.29069900  0.75000000  1
  O2-  O11  1  0.50000000  0.20930100  0.25000000  1
