# generated using pymatgen
data_FeO2
_symmetry_space_group_name_H-M   'P 1'
_cell_length_a   10.36658800
_cell_length_b   6.00675200
_cell_length_c   14.40006635
_cell_angle_alpha   90.00000000
_cell_angle_beta   90.38515211
_cell_angle_gamma   90.00000000
_symmetry_Int_Tables_number   1
_chemical_formula_structural   FeO2
_chemical_formula_sum   'Fe24 O48'
_cell_volume   896.66500630
_cell_formula_units_Z   24
loop_
 _symmetry_equiv_pos_site_id
 _symmetry_equiv_pos_as_xyz
  1  'x, y, z'
loop_
 _atom_site_type_symbol
 _atom_site_label
 _atom_site_symmetry_multiplicity
 _atom_site_fract_x
 _atom_site_fract_y
 _atom_site_fract_z
 _atom_site_occupancy
  Fe  Fe0  1  0.58091150  0.74116850  0.83316000  1
  Fe  Fe1  1  0.25032950  0.24936350  0.49999000  1
  Fe  Fe2  1  0.66566800  0.00000000  0.66642200  1
  Fe  Fe3  1  0.83876600  0.00000000  0.83241600  1
  Fe  Fe4  1  0.25032950  0.75063650  0.49999000  1
  Fe  Fe5  1  0.58091150  0.25883150  0.83316000  1
  Fe  Fe6  1  0.33646900  0.00000000  0.33348600  1
  Fe  Fe7  1  0.50076000  0.00000000  0.50003500  1
  Fe  Fe8  1  0.41745650  0.24989450  0.16608200  1
  Fe  Fe9  1  0.16641900  0.00000000  0.16644000  1
  Fe  Fe10  1  0.41745650  0.75010550  0.16608200  1
  Fe  Fe11  1  0.66452600  0.00000000  0.04601600  1
  Fe  Fe12  1  0.08091150  0.24116850  0.83316000  1
  Fe  Fe13  1  0.75032950  0.74936350  0.49999000  1
  Fe  Fe14  1  0.16566800  0.50000000  0.66642200  1
  Fe  Fe15  1  0.33876600  0.50000000  0.83241600  1
  Fe  Fe16  1  0.75032950  0.25063650  0.49999000  1
  Fe  Fe17  1  0.08091150  0.75883150  0.83316000  1
  Fe  Fe18  1  0.83646900  0.50000000  0.33348600  1
  Fe  Fe19  1  0.00076000  0.50000000  0.50003500  1
  Fe  Fe20  1  0.91745650  0.74989450  0.16608200  1
  Fe  Fe21  1  0.66641900  0.50000000  0.16644000  1
  Fe  Fe22  1  0.91745650  0.25010550  0.16608200  1
  Fe  Fe23  1  0.16452600  0.50000000  0.04601600  1
  O  O24  1  0.42497400  0.26974400  0.89374000  1
  O  O25  1  0.15349000  0.00000000  0.89495700  1
  O  O26  1  0.00196000  0.00000000  0.75620200  1
  O  O27  1  0.42497400  0.73025600  0.89374000  1
  O  O28  1  0.58764350  0.78454350  0.57912000  1
  O  O29  1  0.73625400  0.79051600  0.75668800  1
  O  O30  1  0.66581300  0.00000000  0.91224300  1
  O  O31  1  0.52716100  0.00000000  0.75583500  1
  O  O32  1  0.80858800  0.00000000  0.58284700  1
  O  O33  1  0.66244500  0.00000000  0.43232800  1
  O  O34  1  0.58764350  0.21545650  0.57912000  1
  O  O35  1  0.73625400  0.20948400  0.75668800  1
  O  O36  1  0.26540650  0.78918350  0.25378400  1
  O  O37  1  0.41149150  0.78741850  0.41883400  1
  O  O38  1  0.33819300  0.00000000  0.56773000  1
  O  O39  1  0.19250000  0.00000000  0.41692700  1
  O  O40  1  0.33454300  0.00000000  0.09861900  1
  O  O41  1  0.47782300  0.00000000  0.25316900  1
  O  O42  1  0.26540650  0.21081650  0.25378400  1
  O  O43  1  0.41149150  0.21258150  0.41883400  1
  O  O44  1  0.58296650  0.24698650  0.09797300  1
  O  O45  1  0.83149500  0.00000000  0.09770300  1
  O  O46  1  0.99864400  0.00000000  0.23147900  1
  O  O47  1  0.58296650  0.75301350  0.09797300  1
  O  O48  1  0.92497400  0.76974400  0.89374000  1
  O  O49  1  0.65349000  0.50000000  0.89495700  1
  O  O50  1  0.50196000  0.50000000  0.75620200  1
  O  O51  1  0.92497400  0.23025600  0.89374000  1
  O  O52  1  0.08764350  0.28454350  0.57912000  1
  O  O53  1  0.23625400  0.29051600  0.75668800  1
  O  O54  1  0.16581300  0.50000000  0.91224300  1
  O  O55  1  0.02716100  0.50000000  0.75583500  1
  O  O56  1  0.30858800  0.50000000  0.58284700  1
  O  O57  1  0.16244500  0.50000000  0.43232800  1
  O  O58  1  0.08764350  0.71545650  0.57912000  1
  O  O59  1  0.23625400  0.70948400  0.75668800  1
  O  O60  1  0.76540650  0.28918350  0.25378400  1
  O  O61  1  0.91149150  0.28741850  0.41883400  1
  O  O62  1  0.83819300  0.50000000  0.56773000  1
  O  O63  1  0.69250000  0.50000000  0.41692700  1
  O  O64  1  0.83454300  0.50000000  0.09861900  1
  O  O65  1  0.97782300  0.50000000  0.25316900  1
  O  O66  1  0.76540650  0.71081650  0.25378400  1
  O  O67  1  0.91149150  0.71258150  0.41883400  1
  O  O68  1  0.08296650  0.74698650  0.09797300  1
  O  O69  1  0.33149500  0.50000000  0.09770300  1
  O  O70  1  0.49864400  0.50000000  0.23147900  1
  O  O71  1  0.08296650  0.25301350  0.09797300  1
