# generated using pymatgen
data_FeO2
_symmetry_space_group_name_H-M   'P 1'
_cell_length_a   2.88712412
_cell_length_b   2.88712412
_cell_length_c   10.26480700
_cell_angle_alpha   90.00000000
_cell_angle_beta   90.00000000
_cell_angle_gamma   120.00000000
_symmetry_Int_Tables_number   1
_chemical_formula_structural   FeO2
_chemical_formula_sum   'Fe2 O4'
_cell_volume   74.09899695
_cell_formula_units_Z   2
loop_
 _symmetry_equiv_pos_site_id
 _symmetry_equiv_pos_as_xyz
  1  'x, y, z'
loop_
 _atom_type_symbol
 _atom_type_oxidation_number
  Fe4+  4.0
  O2-  -2.0
loop_
 _atom_site_type_symbol
 _atom_site_label
 _atom_site_symmetry_multiplicity
 _atom_site_fract_x
 _atom_site_fract_y
 _atom_site_fract_z
 _atom_site_occupancy
  Fe4+  Fe0  1  0.00000000  0.00000000  0.00000000  1
  Fe4+  Fe1  1  0.00000000  0.00000000  0.50000000  1
  O2-  O2  1  0.66666667  0.33333333  0.90659900  1
  O2-  O3  1  0.66666667  0.33333333  0.59340100  1
  O2-  O4  1  0.33333333  0.66666667  0.09340100  1
  O2-  O5  1  0.33333333  0.66666667  0.40659900  1
