# generated using pymatgen
data_FeO2
_symmetry_space_group_name_H-M   'P 1'
_cell_length_a   5.98226400
_cell_length_b   6.18069200
_cell_length_c   7.64364200
_cell_angle_alpha   90.00000000
_cell_angle_beta   90.00000000
_cell_angle_gamma   90.00000000
_symmetry_Int_Tables_number   1
_chemical_formula_structural   FeO2
_chemical_formula_sum   'Fe8 O16'
_cell_volume   282.62007997
_cell_formula_units_Z   8
loop_
 _symmetry_equiv_pos_site_id
 _symmetry_equiv_pos_as_xyz
  1  'x, y, z'
loop_
 _atom_type_symbol
 _atom_type_oxidation_number
  Fe4+  4.0
  O2-  -2.0
loop_
 _atom_site_type_symbol
 _atom_site_label
 _atom_site_symmetry_multiplicity
 _atom_site_fract_x
 _atom_site_fract_y
 _atom_site_fract_z
 _atom_site_occupancy
  Fe4+  Fe0  1  0.50000000  0.25000000  0.38999900  1
  Fe4+  Fe1  1  0.50000000  0.00000000  0.00000000  1
  Fe4+  Fe2  1  0.00000000  0.00000000  0.50000000  1
  Fe4+  Fe3  1  0.00000000  0.25000000  0.11000100  1
  Fe4+  Fe4  1  0.00000000  0.75000000  0.88999900  1
  Fe4+  Fe5  1  0.00000000  0.50000000  0.50000000  1
  Fe4+  Fe6  1  0.50000000  0.50000000  0.00000000  1
  Fe4+  Fe7  1  0.50000000  0.75000000  0.61000100  1
  O2-  O8  1  0.50000000  0.01361100  0.24858000  1
  O2-  O9  1  0.50000000  0.48638900  0.24858000  1
  O2-  O10  1  0.22070300  0.25000000  0.50377800  1
  O2-  O11  1  0.77929700  0.25000000  0.50377800  1
  O2-  O12  1  0.72070300  0.25000000  0.99622200  1
  O2-  O13  1  0.27929700  0.25000000  0.99622200  1
  O2-  O14  1  0.00000000  0.01361100  0.25142000  1
  O2-  O15  1  0.00000000  0.48638900  0.25142000  1
  O2-  O16  1  0.00000000  0.51361100  0.74858000  1
  O2-  O17  1  0.00000000  0.98638900  0.74858000  1
  O2-  O18  1  0.72070300  0.75000000  0.00377800  1
  O2-  O19  1  0.27929700  0.75000000  0.00377800  1
  O2-  O20  1  0.22070300  0.75000000  0.49622200  1
  O2-  O21  1  0.77929700  0.75000000  0.49622200  1
  O2-  O22  1  0.50000000  0.51361100  0.75142000  1
  O2-  O23  1  0.50000000  0.98638900  0.75142000  1
