# generated using pymatgen
data_FeO
_symmetry_space_group_name_H-M   'P 1'
_cell_length_a   9.98227324
_cell_length_b   10.33301314
_cell_length_c   10.70630114
_cell_angle_alpha   91.06191906
_cell_angle_beta   97.81741045
_cell_angle_gamma   90.40945301
_symmetry_Int_Tables_number   1
_chemical_formula_structural   FeO
_chemical_formula_sum   'Fe40 O40'
_cell_volume   1093.81946312
_cell_formula_units_Z   40
loop_
 _symmetry_equiv_pos_site_id
 _symmetry_equiv_pos_as_xyz
  1  'x, y, z'
loop_
 _atom_type_symbol
 _atom_type_oxidation_number
  Fe2+  2.0
  O2-  -2.0
loop_
 _atom_site_type_symbol
 _atom_site_label
 _atom_site_symmetry_multiplicity
 _atom_site_fract_x
 _atom_site_fract_y
 _atom_site_fract_z
 _atom_site_occupancy
  Fe2+  Fe0  1  0.29894524  0.08447611  0.07873525  1
  Fe2+  Fe1  1  0.63619737  0.49399560  0.10689445  1
  Fe2+  Fe2  1  0.66509983  0.71435326  0.92913550  1
  Fe2+  Fe3  1  0.17373311  0.85277878  0.80788688  1
  Fe2+  Fe4  1  0.56070152  0.22477355  0.16873918  1
  Fe2+  Fe5  1  0.67213790  0.26008613  0.43794338  1
  Fe2+  Fe6  1  0.05917078  0.56500001  0.95885290  1
  Fe2+  Fe7  1  0.46599698  0.41039627  0.83936498  1
  Fe2+  Fe8  1  0.93297171  0.65519342  0.21464329  1
  Fe2+  Fe9  1  0.69220753  0.76247693  0.32358966  1
  Fe2+  Fe10  1  0.38896494  0.56886279  0.31694516  1
  Fe2+  Fe11  1  0.57304493  0.46762390  0.59618742  1
  Fe2+  Fe12  1  0.87342294  0.21232719  0.68339898  1
  Fe2+  Fe13  1  0.26694178  0.11328100  0.75705753  1
  Fe2+  Fe14  1  0.78187271  0.01737200  0.44864688  1
  Fe2+  Fe15  1  0.00456794  0.57146195  0.63211692  1
  Fe2+  Fe16  1  0.12059999  0.31737243  0.85348975  1
  Fe2+  Fe17  1  0.99831032  0.98949777  0.27698912  1
  Fe2+  Fe18  1  0.49560235  0.93515395  0.85472019  1
  Fe2+  Fe19  1  0.37206637  0.26685983  0.32592508  1
  Fe2+  Fe20  1  0.27532663  0.05516294  0.50750059  1
  Fe2+  Fe21  1  0.79352684  0.49408068  0.38960583  1
  Fe2+  Fe22  1  0.82240529  0.97893909  0.84906286  1
  Fe2+  Fe23  1  0.71862707  0.94858850  0.09682370  1
  Fe2+  Fe24  1  0.33808764  0.38863350  0.08172973  1
  Fe2+  Fe25  1  0.02201735  0.99830470  0.61938570  1
  Fe2+  Fe26  1  0.78783266  0.48059448  0.78098010  1
  Fe2+  Fe27  1  0.48364536  0.94269941  0.35345830  1
  Fe2+  Fe28  1  0.07160242  0.35386721  0.18948413  1
  Fe2+  Fe29  1  0.72355383  0.78343063  0.63106273  1
  Fe2+  Fe30  1  0.99167067  0.14514117  0.03806738  1
  Fe2+  Fe31  1  0.32747614  0.69161523  0.62148636  1
  Fe2+  Fe32  1  0.58044297  0.16797744  0.66025524  1
  Fe2+  Fe33  1  0.69334504  0.23845138  0.92013100  1
  Fe2+  Fe34  1  0.04326937  0.26007628  0.43854315  1
  Fe2+  Fe35  1  0.33539692  0.63409955  0.88813512  1
  Fe2+  Fe36  1  0.43419184  0.77301153  0.13831338  1
  Fe2+  Fe37  1  0.07976205  0.84589061  0.05942522  1
  Fe2+  Fe38  1  0.10556713  0.74562903  0.43063264  1
  Fe2+  Fe39  1  0.27187116  0.43744801  0.52186480  1
  O2-  O40  1  0.45617657  0.43387751  0.43526942  1
  O2-  O41  1  0.65689985  0.88128121  0.48006108  1
  O2-  O42  1  0.16927240  0.23856721  0.02843019  1
  O2-  O43  1  0.26381741  0.41563721  0.24463871  1
  O2-  O44  1  0.05779688  0.80027080  0.23497666  1
  O2-  O45  1  0.35368157  0.94399024  0.19335673  1
  O2-  O46  1  0.74752722  0.40979499  0.54358031  1
  O2-  O47  1  0.08619269  0.17922786  0.70775022  1
  O2-  O48  1  0.41378826  0.51755749  0.68239512  1
  O2-  O49  1  0.83058500  0.63197230  0.66665266  1
  O2-  O50  1  0.36850765  0.78350836  0.78488167  1
  O2-  O51  1  0.98390197  0.91979433  0.77276876  1
  O2-  O52  1  0.48905018  0.73836644  0.32796145  1
  O2-  O53  1  0.43727367  0.56857653  0.13490183  1
  O2-  O54  1  0.62603251  0.33475678  0.75236401  1
  O2-  O55  1  0.91924647  0.64260593  0.39414055  1
  O2-  O56  1  0.99887193  0.51811062  0.11775309  1
  O2-  O57  1  0.10426879  0.95507453  0.46190760  1
  O2-  O58  1  0.56106364  0.83158939  0.02444358  1
  O2-  O59  1  0.65837192  0.05431099  0.94110844  1
  O2-  O60  1  0.29822088  0.00871405  0.90402509  1
  O2-  O61  1  0.17742420  0.72183506  0.96401803  1
  O2-  O62  1  0.67578196  0.83899691  0.79227413  1
  O2-  O63  1  0.41385410  0.06167852  0.65959817  1
  O2-  O64  1  0.74313562  0.66345111  0.17359438  1
  O2-  O65  1  0.07187714  0.43372978  0.53458823  1
  O2-  O66  1  0.01728127  0.18129416  0.24271708  1
  O2-  O67  1  0.27276935  0.63713818  0.43992402  1
  O2-  O68  1  0.24644484  0.23481029  0.46301996  1
  O2-  O69  1  0.53560879  0.31565839  0.00656981  1
  O2-  O70  1  0.92363794  0.96446037  0.04674763  1
  O2-  O71  1  0.68959532  0.52884141  0.92690371  1
  O2-  O72  1  0.00092214  0.47292139  0.79697231  1
  O2-  O73  1  0.88143233  0.20747330  0.87427956  1
  O2-  O74  1  0.79486950  0.94095609  0.27901241  1
  O2-  O75  1  0.68883801  0.37554696  0.26482696  1
  O2-  O76  1  0.88040506  0.17610656  0.49392905  1
  O2-  O77  1  0.28554086  0.44702302  0.89813371  1
  O2-  O78  1  0.12080345  0.71976774  0.63469586  1
  O2-  O79  1  0.53347505  0.14264074  0.33445135  1
