# generated using pymatgen
data_FeO
_symmetry_space_group_name_H-M   'P 1'
_cell_length_a   3.08449843
_cell_length_b   3.13609260
_cell_length_c   5.34638402
_cell_angle_alpha   88.63750288
_cell_angle_beta   106.67815922
_cell_angle_gamma   119.00629178
_symmetry_Int_Tables_number   1
_chemical_formula_structural   FeO
_chemical_formula_sum   'Fe2 O2'
_cell_volume   42.91431955
_cell_formula_units_Z   2
loop_
 _symmetry_equiv_pos_site_id
 _symmetry_equiv_pos_as_xyz
  1  'x, y, z'
loop_
 _atom_type_symbol
 _atom_type_oxidation_number
  Fe2+  2.0
  O2-  -2.0
loop_
 _atom_site_type_symbol
 _atom_site_label
 _atom_site_symmetry_multiplicity
 _atom_site_fract_x
 _atom_site_fract_y
 _atom_site_fract_z
 _atom_site_occupancy
  Fe2+  Fe0  1  0.00000000  0.00000000  0.00000000  1
  Fe2+  Fe1  1  0.00000000  0.50000000  0.50000000  1
  O2-  O2  1  0.54047500  0.75104300  0.25033200  1
  O2-  O3  1  0.45952500  0.24895700  0.74966800  1
