# generated using pymatgen
data_FeO
_symmetry_space_group_name_H-M   'P 1'
_cell_length_a   5.31915444
_cell_length_b   5.31915444
_cell_length_c   10.50193800
_cell_angle_alpha   90.00000000
_cell_angle_beta   90.00000000
_cell_angle_gamma   120.00000000
_symmetry_Int_Tables_number   1
_chemical_formula_structural   FeO
_chemical_formula_sum   'Fe12 O12'
_cell_volume   257.32695570
_cell_formula_units_Z   12
loop_
 _symmetry_equiv_pos_site_id
 _symmetry_equiv_pos_as_xyz
  1  'x, y, z'
loop_
 _atom_type_symbol
 _atom_type_oxidation_number
  Fe2+  2.0
  O2-  -2.0
loop_
 _atom_site_type_symbol
 _atom_site_label
 _atom_site_symmetry_multiplicity
 _atom_site_fract_x
 _atom_site_fract_y
 _atom_site_fract_z
 _atom_site_occupancy
  Fe2+  Fe0  1  0.31617400  0.98745400  0.62582800  1
  Fe2+  Fe1  1  0.32736500  0.99749800  0.87523100  1
  Fe2+  Fe2  1  0.01254600  0.32872000  0.62582800  1
  Fe2+  Fe3  1  0.00250200  0.32986700  0.87523100  1
  Fe2+  Fe4  1  0.67128000  0.68382600  0.62582800  1
  Fe2+  Fe5  1  0.67013300  0.67263500  0.87523100  1
  Fe2+  Fe6  1  0.32872000  0.01254600  0.12582800  1
  Fe2+  Fe7  1  0.32986700  0.00250200  0.37523100  1
  Fe2+  Fe8  1  0.68382600  0.67128000  0.12582800  1
  Fe2+  Fe9  1  0.67263500  0.67013300  0.37523100  1
  Fe2+  Fe10  1  0.99749800  0.32736500  0.37523100  1
  Fe2+  Fe11  1  0.98745400  0.31617400  0.12582800  1
  O2-  O12  1  0.98468100  0.66617900  0.24881100  1
  O2-  O13  1  0.33333333  0.66666667  0.01044300  1
  O2-  O14  1  0.00000000  0.00000000  0.99227900  1
  O2-  O15  1  0.00000000  0.00000000  0.49227900  1
  O2-  O16  1  0.33333333  0.66666667  0.49106200  1
  O2-  O17  1  0.33382100  0.31850200  0.24881100  1
  O2-  O18  1  0.68149800  0.01531900  0.24881100  1
  O2-  O19  1  0.31850200  0.33382100  0.74881100  1
  O2-  O20  1  0.66666667  0.33333333  0.51044300  1
  O2-  O21  1  0.66666667  0.33333333  0.99106200  1
  O2-  O22  1  0.01531900  0.68149800  0.74881100  1
  O2-  O23  1  0.66617900  0.98468100  0.74881100  1
