# generated using pymatgen
data_FeO
_symmetry_space_group_name_H-M   'P 1'
_cell_length_a   5.36472400
_cell_length_b   3.04886000
_cell_length_c   5.27465586
_cell_angle_alpha   90.00000000
_cell_angle_beta   92.54603352
_cell_angle_gamma   90.00000000
_symmetry_Int_Tables_number   1
_chemical_formula_structural   FeO
_chemical_formula_sum   'Fe4 O4'
_cell_volume   86.18864871
_cell_formula_units_Z   4
loop_
 _symmetry_equiv_pos_site_id
 _symmetry_equiv_pos_as_xyz
  1  'x, y, z'
loop_
 _atom_type_symbol
 _atom_type_oxidation_number
  Fe2+  2.0
  O2-  -2.0
loop_
 _atom_site_type_symbol
 _atom_site_label
 _atom_site_symmetry_multiplicity
 _atom_site_fract_x
 _atom_site_fract_y
 _atom_site_fract_z
 _atom_site_occupancy
  Fe2+  Fe0  1  0.00000000  0.00000000  0.00000000  1
  Fe2+  Fe1  1  0.00000000  0.00000000  0.50000000  1
  Fe2+  Fe2  1  0.50000000  0.50000000  0.00000000  1
  Fe2+  Fe3  1  0.50000000  0.50000000  0.50000000  1
  O2-  O4  1  0.83546700  0.50000000  0.74429900  1
  O2-  O5  1  0.66453300  0.00000000  0.25570100  1
  O2-  O6  1  0.33546700  0.00000000  0.74429900  1
  O2-  O7  1  0.16453300  0.50000000  0.25570100  1
