# generated using pymatgen
data_Fe10O11
_symmetry_space_group_name_H-M   'P 1'
_cell_length_a   5.35378149
_cell_length_b   6.80744188
_cell_length_c   6.87970300
_cell_angle_alpha   107.40716382
_cell_angle_beta   98.41747560
_cell_angle_gamma   104.79498320
_symmetry_Int_Tables_number   1
_chemical_formula_structural   Fe10O11
_chemical_formula_sum   'Fe10 O11'
_cell_volume   224.47394727
_cell_formula_units_Z   1
loop_
 _symmetry_equiv_pos_site_id
 _symmetry_equiv_pos_as_xyz
  1  'x, y, z'
loop_
 _atom_type_symbol
 _atom_type_oxidation_number
  Fe2+  2.0
  Fe3+  3.0
  O2-  -2.0
loop_
 _atom_site_type_symbol
 _atom_site_label
 _atom_site_symmetry_multiplicity
 _atom_site_fract_x
 _atom_site_fract_y
 _atom_site_fract_z
 _atom_site_occupancy
  Fe2+  Fe0  1  0.81756200  0.08642000  0.34549100  1
  Fe2+  Fe1  1  0.63888100  0.17041400  0.73296100  1
  Fe2+  Fe2  1  0.73548900  0.64924600  0.55589000  1
  Fe2+  Fe3  1  0.43992800  0.27378000  0.09627500  1
  Fe2+  Fe4  1  0.56007200  0.72622000  0.90372500  1
  Fe2+  Fe5  1  0.26451100  0.35075400  0.44411000  1
  Fe2+  Fe6  1  0.36111900  0.82958600  0.26703900  1
  Fe2+  Fe7  1  0.18243800  0.91358000  0.65450900  1
  Fe3+  Fe8  1  0.91548300  0.55686900  0.18384900  1
  Fe3+  Fe9  1  0.08451700  0.44313100  0.81615100  1
  O2-  O10  1  0.71407800  0.16833900  0.05481200  1
  O2-  O11  1  0.90626600  0.06216600  0.66377700  1
  O2-  O12  1  0.00000000  0.50000000  0.50000000  1
  O2-  O13  1  0.65253200  0.67429600  0.22456200  1
  O2-  O14  1  0.55130100  0.24050700  0.42421800  1
  O2-  O15  1  0.82824800  0.57486800  0.87496600  1
  O2-  O16  1  0.34746800  0.32570400  0.77543800  1
  O2-  O17  1  0.17175200  0.42513200  0.12503400  1
  O2-  O18  1  0.44869900  0.75949300  0.57578200  1
  O2-  O19  1  0.28592200  0.83166100  0.94518800  1
  O2-  O20  1  0.09373400  0.93783400  0.33622300  1
