# generated using pymatgen
data_Fe14O15
_symmetry_space_group_name_H-M   'P 1'
_cell_length_a   6.87368000
_cell_length_b   6.87368000
_cell_length_c   12.97471400
_cell_angle_alpha   90.00000000
_cell_angle_beta   90.00000000
_cell_angle_gamma   90.00000000
_symmetry_Int_Tables_number   1
_chemical_formula_structural   Fe14O15
_chemical_formula_sum   'Fe28 O30'
_cell_volume   613.02249795
_cell_formula_units_Z   2
loop_
 _symmetry_equiv_pos_site_id
 _symmetry_equiv_pos_as_xyz
  1  'x, y, z'
loop_
 _atom_type_symbol
 _atom_type_oxidation_number
  Fe2+  2.0
  Fe3+  3.0
  O2-  -2.0
loop_
 _atom_site_type_symbol
 _atom_site_label
 _atom_site_symmetry_multiplicity
 _atom_site_fract_x
 _atom_site_fract_y
 _atom_site_fract_z
 _atom_site_occupancy
  Fe2+  Fe0  1  0.38525200  0.80121400  0.00000000  1
  Fe2+  Fe1  1  0.80121400  0.61474800  0.00000000  1
  Fe2+  Fe2  1  0.61474800  0.19878600  0.00000000  1
  Fe2+  Fe3  1  0.19878600  0.38525200  0.00000000  1
  Fe2+  Fe4  1  0.59538500  0.20711500  0.33426100  1
  Fe2+  Fe5  1  0.79288500  0.59538500  0.33426100  1
  Fe2+  Fe6  1  0.20711500  0.40461500  0.33426100  1
  Fe2+  Fe7  1  0.40461500  0.79288500  0.33426100  1
  Fe2+  Fe8  1  0.70711500  0.90461500  0.16573900  1
  Fe2+  Fe9  1  0.29288500  0.09538500  0.16573900  1
  Fe2+  Fe10  1  0.09538500  0.70711500  0.16573900  1
  Fe2+  Fe11  1  0.90461500  0.29288500  0.16573900  1
  Fe2+  Fe12  1  0.88525200  0.30121400  0.50000000  1
  Fe2+  Fe13  1  0.30121400  0.11474800  0.50000000  1
  Fe2+  Fe14  1  0.11474800  0.69878600  0.50000000  1
  Fe2+  Fe15  1  0.69878600  0.88525200  0.50000000  1
  Fe2+  Fe16  1  0.09538500  0.70711500  0.83426100  1
  Fe2+  Fe17  1  0.29288500  0.09538500  0.83426100  1
  Fe2+  Fe18  1  0.70711500  0.90461500  0.83426100  1
  Fe2+  Fe19  1  0.90461500  0.29288500  0.83426100  1
  Fe2+  Fe20  1  0.20711500  0.40461500  0.66573900  1
  Fe2+  Fe21  1  0.79288500  0.59538500  0.66573900  1
  Fe2+  Fe22  1  0.59538500  0.20711500  0.66573900  1
  Fe2+  Fe23  1  0.40461500  0.79288500  0.66573900  1
  Fe3+  Fe24  1  0.00000000  0.00000000  0.33753800  1
  Fe3+  Fe25  1  0.50000000  0.50000000  0.16246200  1
  Fe3+  Fe26  1  0.50000000  0.50000000  0.83753800  1
  Fe3+  Fe27  1  0.00000000  0.00000000  0.66246200  1
  O2-  O28  1  0.50000000  0.50000000  0.00000000  1
  O2-  O29  1  0.11170100  0.67638700  0.00000000  1
  O2-  O30  1  0.17638700  0.38829900  0.50000000  1
  O2-  O31  1  0.32361300  0.11170100  0.00000000  1
  O2-  O32  1  0.88829900  0.32361300  0.00000000  1
  O2-  O33  1  0.50000000  0.50000000  0.31831200  1
  O2-  O34  1  0.90535250  0.29667450  0.33551750  1
  O2-  O35  1  0.70332550  0.90535250  0.33551750  1
  O2-  O36  1  0.29667450  0.09464750  0.33551750  1
  O2-  O37  1  0.09464750  0.70332550  0.33551750  1
  O2-  O38  1  0.20332550  0.40535250  0.16448250  1
  O2-  O39  1  0.79667450  0.59464750  0.16448250  1
  O2-  O40  1  0.59464750  0.20332550  0.16448250  1
  O2-  O41  1  0.00000000  0.00000000  0.18168800  1
  O2-  O42  1  0.40535250  0.79667450  0.16448250  1
  O2-  O43  1  0.00000000  0.00000000  0.50000000  1
  O2-  O44  1  0.61170100  0.17638700  0.50000000  1
  O2-  O45  1  0.67638700  0.88829900  0.00000000  1
  O2-  O46  1  0.82361300  0.61170100  0.50000000  1
  O2-  O47  1  0.38829900  0.82361300  0.50000000  1
  O2-  O48  1  0.00000000  0.00000000  0.81831200  1
  O2-  O49  1  0.40535250  0.79667450  0.83551750  1
  O2-  O50  1  0.20332550  0.40535250  0.83551750  1
  O2-  O51  1  0.79667450  0.59464750  0.83551750  1
  O2-  O52  1  0.59464750  0.20332550  0.83551750  1
  O2-  O53  1  0.70332550  0.90535250  0.66448250  1
  O2-  O54  1  0.29667450  0.09464750  0.66448250  1
  O2-  O55  1  0.09464750  0.70332550  0.66448250  1
  O2-  O56  1  0.50000000  0.50000000  0.68168800  1
  O2-  O57  1  0.90535250  0.29667450  0.66448250  1
