# generated using pymatgen
data_Fe15O16
_symmetry_space_group_name_H-M   'P 1'
_cell_length_a   6.21526023
_cell_length_b   6.21526023
_cell_length_c   30.84833090
_cell_angle_alpha   90.00000000
_cell_angle_beta   90.00000000
_cell_angle_gamma   120.00000000
_symmetry_Int_Tables_number   1
_chemical_formula_structural   Fe15O16
_chemical_formula_sum   'Fe45 O48'
_cell_volume   1032.00294394
_cell_formula_units_Z   3
loop_
 _symmetry_equiv_pos_site_id
 _symmetry_equiv_pos_as_xyz
  1  'x, y, z'
loop_
 _atom_type_symbol
 _atom_type_oxidation_number
  Fe2+  2.0
  Fe3+  3.0
  O2-  -2.0
loop_
 _atom_site_type_symbol
 _atom_site_label
 _atom_site_symmetry_multiplicity
 _atom_site_fract_x
 _atom_site_fract_y
 _atom_site_fract_z
 _atom_site_occupancy
  Fe2+  Fe0  1  0.33333333  0.66666667  0.16666667  1
  Fe2+  Fe1  1  0.00000000  0.00000000  0.00000000  1
  Fe2+  Fe2  1  0.66827733  0.83413867  0.08489067  1
  Fe2+  Fe3  1  0.99838933  0.49919467  0.24844267  1
  Fe2+  Fe4  1  0.16586133  0.83413867  0.08489067  1
  Fe2+  Fe5  1  0.50080533  0.49919467  0.24844267  1
  Fe2+  Fe6  1  0.16586133  0.33172267  0.08489067  1
  Fe2+  Fe7  1  0.50080533  0.00161067  0.24844267  1
  Fe2+  Fe8  1  0.66666667  0.33333333  0.07468733  1
  Fe2+  Fe9  1  0.00000000  0.00000000  0.25864600  1
  Fe2+  Fe10  1  0.00000000  0.50000000  0.00000000  1
  Fe2+  Fe11  1  0.50000000  0.50000000  0.00000000  1
  Fe2+  Fe12  1  0.50000000  0.00000000  0.00000000  1
  Fe2+  Fe13  1  1.00000000  1.00000000  0.50000000  1
  Fe2+  Fe14  1  0.66666667  0.33333333  0.33333333  1
  Fe2+  Fe15  1  0.33494400  0.16747200  0.41822400  1
  Fe2+  Fe16  1  0.66505600  0.83252800  0.58177600  1
  Fe2+  Fe17  1  0.83252800  0.16747200  0.41822400  1
  Fe2+  Fe18  1  0.16747200  0.83252800  0.58177600  1
  Fe2+  Fe19  1  0.83252800  0.66505600  0.41822400  1
  Fe2+  Fe20  1  0.16747200  0.33494400  0.58177600  1
  Fe2+  Fe21  1  0.33333333  0.66666667  0.40802067  1
  Fe2+  Fe22  1  0.66666667  0.33333333  0.59197933  1
  Fe2+  Fe23  1  0.66666667  0.83333333  0.33333333  1
  Fe2+  Fe24  1  0.16666667  0.83333333  0.33333333  1
  Fe2+  Fe25  1  0.16666667  0.33333333  0.33333333  1
  Fe2+  Fe26  1  0.66666667  0.33333333  0.83333333  1
  Fe2+  Fe27  1  0.33333333  0.66666667  0.66666667  1
  Fe2+  Fe28  1  0.00161067  0.50080533  0.75155733  1
  Fe2+  Fe29  1  0.33172267  0.16586133  0.91510933  1
  Fe2+  Fe30  1  0.49919467  0.50080533  0.75155733  1
  Fe2+  Fe31  1  0.83413867  0.16586133  0.91510933  1
  Fe2+  Fe32  1  0.49919467  0.99838933  0.75155733  1
  Fe2+  Fe33  1  0.83413867  0.66827733  0.91510933  1
  Fe2+  Fe34  1  0.00000000  0.00000000  0.74135400  1
  Fe2+  Fe35  1  0.33333333  0.66666667  0.92531267  1
  Fe2+  Fe36  1  0.33333333  0.16666667  0.66666667  1
  Fe2+  Fe37  1  0.83333333  0.16666667  0.66666667  1
  Fe2+  Fe38  1  0.83333333  0.66666667  0.66666667  1
  Fe3+  Fe39  1  0.00000000  0.00000000  0.17978300  1
  Fe3+  Fe40  1  0.66666667  0.33333333  0.15355033  1
  Fe3+  Fe41  1  0.66666667  0.33333333  0.51311633  1
  Fe3+  Fe42  1  0.33333333  0.66666667  0.48688367  1
  Fe3+  Fe43  1  0.33333333  0.66666667  0.84644967  1
  Fe3+  Fe44  1  0.00000000  0.00000000  0.82021700  1
  O2-  O45  1  0.00000000  0.00000000  0.11867100  1
  O2-  O46  1  0.33333333  0.66666667  0.29126467  1
  O2-  O47  1  0.33399600  0.16699800  0.04022200  1
  O2-  O48  1  0.67525333  0.83762667  0.20908767  1
  O2-  O49  1  0.83300200  0.16699800  0.04022200  1
  O2-  O50  1  0.16237333  0.83762667  0.20908767  1
  O2-  O51  1  0.83300200  0.66600400  0.04022200  1
  O2-  O52  1  0.16237333  0.32474667  0.20908767  1
  O2-  O53  1  0.33333333  0.66666667  0.04206867  1
  O2-  O54  1  0.66666667  0.33333333  0.21466233  1
  O2-  O55  1  0.99141333  0.49570667  0.12424567  1
  O2-  O56  1  0.33267067  0.16633533  0.29311133  1
  O2-  O57  1  0.50429333  0.49570667  0.12424567  1
  O2-  O58  1  0.83366467  0.16633533  0.29311133  1
  O2-  O59  1  0.50429333  0.00858667  0.12424567  1
  O2-  O60  1  0.83366467  0.66732933  0.29311133  1
  O2-  O61  1  0.66666667  0.33333333  0.45200433  1
  O2-  O62  1  0.00000000  0.00000000  0.62459800  1
  O2-  O63  1  0.00066267  0.50033133  0.37355533  1
  O2-  O64  1  0.34192000  0.17096000  0.54242100  1
  O2-  O65  1  0.49966867  0.50033133  0.37355533  1
  O2-  O66  1  0.82904000  0.17096000  0.54242100  1
  O2-  O67  1  0.49966867  0.99933733  0.37355533  1
  O2-  O68  1  0.82904000  0.65808000  0.54242100  1
  O2-  O69  1  0.00000000  0.00000000  0.37540200  1
  O2-  O70  1  0.33333333  0.66666667  0.54799567  1
  O2-  O71  1  0.65808000  0.82904000  0.45757900  1
  O2-  O72  1  0.99933733  0.49966867  0.62644467  1
  O2-  O73  1  0.17096000  0.82904000  0.45757900  1
  O2-  O74  1  0.50033133  0.49966867  0.62644467  1
  O2-  O75  1  0.17096000  0.34192000  0.45757900  1
  O2-  O76  1  0.50033133  0.00066267  0.62644467  1
  O2-  O77  1  0.33333333  0.66666667  0.78533767  1
  O2-  O78  1  0.66666667  0.33333333  0.95793133  1
  O2-  O79  1  0.66732933  0.83366467  0.70688867  1
  O2-  O80  1  0.00858667  0.50429333  0.87575433  1
  O2-  O81  1  0.16633533  0.83366467  0.70688867  1
  O2-  O82  1  0.49570667  0.50429333  0.87575433  1
  O2-  O83  1  0.16633533  0.33267067  0.70688867  1
  O2-  O84  1  0.49570667  0.99141333  0.87575433  1
  O2-  O85  1  0.66666667  0.33333333  0.70873533  1
  O2-  O86  1  0.00000000  0.00000000  0.88132900  1
  O2-  O87  1  0.32474667  0.16237333  0.79091233  1
  O2-  O88  1  0.66600400  0.83300200  0.95977800  1
  O2-  O89  1  0.83762667  0.16237333  0.79091233  1
  O2-  O90  1  0.16699800  0.83300200  0.95977800  1
  O2-  O91  1  0.83762667  0.67525333  0.79091233  1
  O2-  O92  1  0.16699800  0.33399600  0.95977800  1
