# generated using pymatgen
data_Fe23O32
_symmetry_space_group_name_H-M   'P 1'
_cell_length_a   11.73694011
_cell_length_b   11.73694011
_cell_length_c   14.49956655
_cell_angle_alpha   90.00000000
_cell_angle_beta   90.00000000
_cell_angle_gamma   120.00000000
_symmetry_Int_Tables_number   1
_chemical_formula_structural   Fe23O32
_chemical_formula_sum   'Fe69 O96'
_cell_volume   1729.79814878
_cell_formula_units_Z   3
loop_
 _symmetry_equiv_pos_site_id
 _symmetry_equiv_pos_as_xyz
  1  'x, y, z'
loop_
 _atom_type_symbol
 _atom_type_oxidation_number
  Fe2+  2.0
  Fe3+  3.0
  O2-  -2.0
loop_
 _atom_site_type_symbol
 _atom_site_label
 _atom_site_symmetry_multiplicity
 _atom_site_fract_x
 _atom_site_fract_y
 _atom_site_fract_z
 _atom_site_occupancy
  Fe2+  Fe0  1  0.00000000  0.50000000  0.00000000  1
  Fe2+  Fe1  1  0.33333333  0.66666667  0.29597267  1
  Fe2+  Fe2  1  0.50000000  0.00000000  0.00000000  1
  Fe2+  Fe3  1  0.16666667  0.83333333  0.33333333  1
  Fe2+  Fe4  1  0.33333333  0.66666667  0.03736067  1
  Fe2+  Fe5  1  0.66666667  0.83333333  0.33333333  1
  Fe2+  Fe6  1  0.00000000  0.00000000  0.62930600  1
  Fe2+  Fe7  1  0.16666667  0.33333333  0.33333333  1
  Fe2+  Fe8  1  0.83333333  0.16666667  0.66666667  1
  Fe2+  Fe9  1  0.00000000  0.00000000  0.37069400  1
  Fe2+  Fe10  1  0.33333333  0.16666667  0.66666667  1
  Fe2+  Fe11  1  0.66666667  0.33333333  0.96263933  1
  Fe2+  Fe12  1  0.83333333  0.66666667  0.66666667  1
  Fe2+  Fe13  1  0.50000000  0.50000000  0.00000000  1
  Fe2+  Fe14  1  0.66666667  0.33333333  0.70402733  1
  Fe3+  Fe15  1  0.16517900  0.33035800  0.95460100  1
  Fe3+  Fe16  1  0.49639800  0.74819900  0.50133500  1
  Fe3+  Fe17  1  0.17026867  0.58513433  0.83199833  1
  Fe3+  Fe18  1  0.50148767  0.49851233  0.37873233  1
  Fe3+  Fe19  1  0.50148767  0.00297533  0.37873233  1
  Fe3+  Fe20  1  0.25180100  0.50360200  0.50133500  1
  Fe3+  Fe21  1  0.58668833  0.92002167  0.16666667  1
  Fe3+  Fe22  1  0.25180100  0.74819900  0.50133500  1
  Fe3+  Fe23  1  0.58668833  0.66666667  0.16666667  1
  Fe3+  Fe24  1  0.66964200  0.83482100  0.95460100  1
  Fe3+  Fe25  1  0.33333333  0.92002167  0.16666667  1
  Fe3+  Fe26  1  0.33333333  0.41331167  0.16666667  1
  Fe3+  Fe27  1  0.99702467  0.49851233  0.37873233  1
  Fe3+  Fe28  1  0.07997833  0.41331167  0.16666667  1
  Fe3+  Fe29  1  0.07997833  0.66666667  0.16666667  1
  Fe3+  Fe30  1  0.41486567  0.82973133  0.83199833  1
  Fe3+  Fe31  1  0.41486567  0.58513433  0.83199833  1
  Fe3+  Fe32  1  0.16517900  0.83482100  0.95460100  1
  Fe3+  Fe33  1  0.83184567  0.66369133  0.28793433  1
  Fe3+  Fe34  1  0.16306467  0.08153233  0.83466833  1
  Fe3+  Fe35  1  0.83693533  0.91846767  0.16533167  1
  Fe3+  Fe36  1  0.16815433  0.83184567  0.71206567  1
  Fe3+  Fe37  1  0.16815433  0.33630867  0.71206567  1
  Fe3+  Fe38  1  0.91846767  0.83693533  0.83466833  1
  Fe3+  Fe39  1  0.25335500  0.25335500  0.50000000  1
  Fe3+  Fe40  1  0.91846767  0.08153233  0.83466833  1
  Fe3+  Fe41  1  0.25335500  0.00000000  0.50000000  1
  Fe3+  Fe42  1  0.33630867  0.16815433  0.28793433  1
  Fe3+  Fe43  1  0.00000000  0.25335500  0.50000000  1
  Fe3+  Fe44  1  0.00000000  0.74664500  0.50000000  1
  Fe3+  Fe45  1  0.66369133  0.83184567  0.71206567  1
  Fe3+  Fe46  1  0.74664500  0.74664500  0.50000000  1
  Fe3+  Fe47  1  0.74664500  0.00000000  0.50000000  1
  Fe3+  Fe48  1  0.08153233  0.16306467  0.16533167  1
  Fe3+  Fe49  1  0.08153233  0.91846767  0.16533167  1
  Fe3+  Fe50  1  0.83184567  0.16815433  0.28793433  1
  Fe3+  Fe51  1  0.49851233  0.99702467  0.62126767  1
  Fe3+  Fe52  1  0.82973133  0.41486567  0.16800167  1
  Fe3+  Fe53  1  0.50360200  0.25180100  0.49866500  1
  Fe3+  Fe54  1  0.83482100  0.16517900  0.04539900  1
  Fe3+  Fe55  1  0.83482100  0.66964200  0.04539900  1
  Fe3+  Fe56  1  0.58513433  0.17026867  0.16800167  1
  Fe3+  Fe57  1  0.92002167  0.58668833  0.83333333  1
  Fe3+  Fe58  1  0.58513433  0.41486567  0.16800167  1
  Fe3+  Fe59  1  0.92002167  0.33333333  0.83333333  1
  Fe3+  Fe60  1  0.00297533  0.50148767  0.62126767  1
  Fe3+  Fe61  1  0.66666667  0.58668833  0.83333333  1
  Fe3+  Fe62  1  0.66666667  0.07997833  0.83333333  1
  Fe3+  Fe63  1  0.33035800  0.16517900  0.04539900  1
  Fe3+  Fe64  1  0.41331167  0.07997833  0.83333333  1
  Fe3+  Fe65  1  0.41331167  0.33333333  0.83333333  1
  Fe3+  Fe66  1  0.74819900  0.49639800  0.49866500  1
  Fe3+  Fe67  1  0.74819900  0.25180100  0.49866500  1
  Fe3+  Fe68  1  0.49851233  0.50148767  0.62126767  1
  O2-  O69  1  0.58333167  0.68278533  0.41600933  1
  O2-  O70  1  0.25253400  0.74746600  0.76784500  1
  O2-  O71  1  0.25253400  0.50506800  0.76784500  1
  O2-  O72  1  0.08333500  0.65054800  0.91732400  1
  O2-  O73  1  0.58333167  0.90054633  0.41600933  1
  O2-  O74  1  0.41413267  0.58586733  0.56548833  1
  O2-  O75  1  0.41413267  0.82826533  0.56548833  1
  O2-  O76  1  0.08333500  0.43278700  0.91732400  1
  O2-  O77  1  0.33333333  0.66666667  0.42952667  1
  O2-  O78  1  0.51384533  0.75692267  0.25355767  1
  O2-  O79  1  0.68146733  0.84073367  0.08952467  1
  O2-  O80  1  0.50740033  0.49259967  0.24380867  1
  O2-  O81  1  0.17173467  0.58586733  0.56548833  1
  O2-  O82  1  0.31721467  0.41666833  0.41600933  1
  O2-  O83  1  0.50740033  0.01480067  0.24380867  1
  O2-  O84  1  0.31721467  0.90054633  0.41600933  1
  O2-  O85  1  0.09945367  0.41666833  0.41600933  1
  O2-  O86  1  0.09945367  0.68278533  0.41600933  1
  O2-  O87  1  0.42358933  0.57641067  0.07977567  1
  O2-  O88  1  0.24307733  0.75692267  0.25355767  1
  O2-  O89  1  0.42358933  0.84717867  0.07977567  1
  O2-  O90  1  0.24307733  0.48615467  0.25355767  1
  O2-  O91  1  0.56721300  0.91666500  0.91732400  1
  O2-  O92  1  0.56721300  0.65054800  0.91732400  1
  O2-  O93  1  0.34945200  0.91666500  0.91732400  1
  O2-  O94  1  0.15926633  0.84073367  0.08952467  1
  O2-  O95  1  0.34945200  0.43278700  0.91732400  1
  O2-  O96  1  0.49493200  0.74746600  0.76784500  1
  O2-  O97  1  0.15926633  0.31853267  0.08952467  1
  O2-  O98  1  0.98519933  0.49259967  0.24380867  1
  O2-  O99  1  0.15282133  0.57641067  0.07977567  1
  O2-  O100  1  0.33333333  0.66666667  0.90380667  1
  O2-  O101  1  0.24999833  0.01611867  0.74934267  1
  O2-  O102  1  0.91920067  0.08079933  0.10117833  1
  O2-  O103  1  0.91920067  0.83840133  0.10117833  1
  O2-  O104  1  0.75000167  0.98388133  0.25065733  1
  O2-  O105  1  0.24999833  0.23387967  0.74934267  1
  O2-  O106  1  0.08079933  0.91920067  0.89882167  1
  O2-  O107  1  0.08079933  0.16159867  0.89882167  1
  O2-  O108  1  0.75000167  0.76612033  0.25065733  1
  O2-  O109  1  0.00000000  0.00000000  0.76286000  1
  O2-  O110  1  0.18051200  0.09025600  0.58689100  1
  O2-  O111  1  0.34813400  0.17406700  0.42285800  1
  O2-  O112  1  0.17406700  0.82593300  0.57714200  1
  O2-  O113  1  0.83840133  0.91920067  0.89882167  1
  O2-  O114  1  0.98388133  0.75000167  0.74934267  1
  O2-  O115  1  0.17406700  0.34813400  0.57714200  1
  O2-  O116  1  0.98388133  0.23387967  0.74934267  1
  O2-  O117  1  0.76612033  0.75000167  0.74934267  1
  O2-  O118  1  0.76612033  0.01611867  0.74934267  1
  O2-  O119  1  0.09025600  0.90974400  0.41310900  1
  O2-  O120  1  0.90974400  0.09025600  0.58689100  1
  O2-  O121  1  0.09025600  0.18051200  0.41310900  1
  O2-  O122  1  0.90974400  0.81948800  0.58689100  1
  O2-  O123  1  0.23387967  0.24999833  0.25065733  1
  O2-  O124  1  0.23387967  0.98388133  0.25065733  1
  O2-  O125  1  0.01611867  0.24999833  0.25065733  1
  O2-  O126  1  0.82593300  0.17406700  0.42285800  1
  O2-  O127  1  0.01611867  0.76612033  0.25065733  1
  O2-  O128  1  0.16159867  0.08079933  0.10117833  1
  O2-  O129  1  0.82593300  0.65186600  0.42285800  1
  O2-  O130  1  0.65186600  0.82593300  0.57714200  1
  O2-  O131  1  0.81948800  0.90974400  0.41310900  1
  O2-  O132  1  0.00000000  0.00000000  0.23714000  1
  O2-  O133  1  0.91666500  0.34945200  0.08267600  1
  O2-  O134  1  0.58586733  0.41413267  0.43451167  1
  O2-  O135  1  0.58586733  0.17173467  0.43451167  1
  O2-  O136  1  0.41666833  0.31721467  0.58399067  1
  O2-  O137  1  0.91666500  0.56721300  0.08267600  1
  O2-  O138  1  0.74746600  0.25253400  0.23215500  1
  O2-  O139  1  0.74746600  0.49493200  0.23215500  1
  O2-  O140  1  0.41666833  0.09945367  0.58399067  1
  O2-  O141  1  0.66666667  0.33333333  0.09619333  1
  O2-  O142  1  0.84717867  0.42358933  0.92022433  1
  O2-  O143  1  0.01480067  0.50740033  0.75619133  1
  O2-  O144  1  0.84073367  0.15926633  0.91047533  1
  O2-  O145  1  0.50506800  0.25253400  0.23215500  1
  O2-  O146  1  0.65054800  0.08333500  0.08267600  1
  O2-  O147  1  0.84073367  0.68146733  0.91047533  1
  O2-  O148  1  0.65054800  0.56721300  0.08267600  1
  O2-  O149  1  0.43278700  0.08333500  0.08267600  1
  O2-  O150  1  0.43278700  0.34945200  0.08267600  1
  O2-  O151  1  0.75692267  0.24307733  0.74644233  1
  O2-  O152  1  0.57641067  0.42358933  0.92022433  1
  O2-  O153  1  0.75692267  0.51384533  0.74644233  1
  O2-  O154  1  0.57641067  0.15282133  0.92022433  1
  O2-  O155  1  0.90054633  0.58333167  0.58399067  1
  O2-  O156  1  0.90054633  0.31721467  0.58399067  1
  O2-  O157  1  0.68278533  0.58333167  0.58399067  1
  O2-  O158  1  0.49259967  0.50740033  0.75619133  1
  O2-  O159  1  0.68278533  0.09945367  0.58399067  1
  O2-  O160  1  0.82826533  0.41413267  0.43451167  1
  O2-  O161  1  0.49259967  0.98519933  0.75619133  1
  O2-  O162  1  0.31853267  0.15926633  0.91047533  1
  O2-  O163  1  0.48615467  0.24307733  0.74644233  1
  O2-  O164  1  0.66666667  0.33333333  0.57047333  1
