# generated using pymatgen
data_Fe2O3
_symmetry_space_group_name_H-M   'P 1'
_cell_length_a   2.87233400
_cell_length_b   9.52736800
_cell_length_c   7.31178600
_cell_angle_alpha   90.00000000
_cell_angle_beta   90.00000000
_cell_angle_gamma   90.00000000
_symmetry_Int_Tables_number   1
_chemical_formula_structural   Fe2O3
_chemical_formula_sum   'Fe8 O12'
_cell_volume   200.09274929
_cell_formula_units_Z   4
loop_
 _symmetry_equiv_pos_site_id
 _symmetry_equiv_pos_as_xyz
  1  'x, y, z'
loop_
 _atom_type_symbol
 _atom_type_oxidation_number
  Fe3+  3.0
  O2-  -2.0
loop_
 _atom_site_type_symbol
 _atom_site_label
 _atom_site_symmetry_multiplicity
 _atom_site_fract_x
 _atom_site_fract_y
 _atom_site_fract_z
 _atom_site_occupancy
  Fe3+  Fe0  1  0.00000000  0.00000000  0.00000000  1
  Fe3+  Fe1  1  0.00000000  0.00000000  0.50000000  1
  Fe3+  Fe2  1  0.00000000  0.24894700  0.75000000  1
  Fe3+  Fe3  1  0.50000000  0.25105300  0.25000000  1
  Fe3+  Fe4  1  0.50000000  0.50000000  0.00000000  1
  Fe3+  Fe5  1  0.50000000  0.50000000  0.50000000  1
  Fe3+  Fe6  1  0.50000000  0.74894700  0.75000000  1
  Fe3+  Fe7  1  0.00000000  0.75105300  0.25000000  1
  O2-  O8  1  0.50000000  0.39718600  0.75000000  1
  O2-  O9  1  0.00000000  0.10281400  0.25000000  1
  O2-  O10  1  0.50000000  0.13899000  0.92466700  1
  O2-  O11  1  0.00000000  0.36101000  0.07533300  1
  O2-  O12  1  0.50000000  0.13899000  0.57533300  1
  O2-  O13  1  0.00000000  0.36101000  0.42466700  1
  O2-  O14  1  0.00000000  0.89718600  0.75000000  1
  O2-  O15  1  0.50000000  0.60281400  0.25000000  1
  O2-  O16  1  0.00000000  0.63899000  0.92466700  1
  O2-  O17  1  0.50000000  0.86101000  0.07533300  1
  O2-  O18  1  0.00000000  0.63899000  0.57533300  1
  O2-  O19  1  0.50000000  0.86101000  0.42466700  1
