# generated using pymatgen
data_Fe2O3
_symmetry_space_group_name_H-M   'P 1'
_cell_length_a   9.25609206
_cell_length_b   10.28126352
_cell_length_c   10.88277650
_cell_angle_alpha   93.38653755
_cell_angle_beta   98.21484333
_cell_angle_gamma   91.95766032
_symmetry_Int_Tables_number   1
_chemical_formula_structural   Fe2O3
_chemical_formula_sum   'Fe32 O48'
_cell_volume   1022.28386619
_cell_formula_units_Z   16
loop_
 _symmetry_equiv_pos_site_id
 _symmetry_equiv_pos_as_xyz
  1  'x, y, z'
loop_
 _atom_type_symbol
 _atom_type_oxidation_number
  Fe3+  3.0
  O2-  -2.0
loop_
 _atom_site_type_symbol
 _atom_site_label
 _atom_site_symmetry_multiplicity
 _atom_site_fract_x
 _atom_site_fract_y
 _atom_site_fract_z
 _atom_site_occupancy
  Fe3+  Fe0  1  0.50407800  0.03020700  0.12337400  1
  Fe3+  Fe1  1  0.82006500  0.12928300  0.00375700  1
  Fe3+  Fe2  1  0.46123600  0.74364100  0.13463400  1
  Fe3+  Fe3  1  0.92443300  0.59988200  0.43451700  1
  Fe3+  Fe4  1  0.96421800  0.88211300  0.93550700  1
  Fe3+  Fe5  1  0.17010700  0.19395600  0.05989900  1
  Fe3+  Fe6  1  0.71855300  0.07161200  0.43107900  1
  Fe3+  Fe7  1  0.30264900  0.55068300  0.34272900  1
  Fe3+  Fe8  1  0.02486100  0.06526300  0.23364800  1
  Fe3+  Fe9  1  0.28373200  0.76314700  0.55378500  1
  Fe3+  Fe10  1  0.27571600  0.03233400  0.61517800  1
  Fe3+  Fe11  1  0.32220100  0.97107500  0.32680400  1
  Fe3+  Fe12  1  0.69024100  0.62785500  0.94166000  1
  Fe3+  Fe13  1  0.81795700  0.94739400  0.67343600  1
  Fe3+  Fe14  1  0.99430600  0.36208000  0.81280800  1
  Fe3+  Fe15  1  0.98129400  0.38519700  0.24384500  1
  Fe3+  Fe16  1  0.07695800  0.67741600  0.76532100  1
  Fe3+  Fe17  1  0.14530000  0.54342000  0.02860800  1
  Fe3+  Fe18  1  0.66843400  0.32388200  0.79897200  1
  Fe3+  Fe19  1  0.65360600  0.27177900  0.24887000  1
  Fe3+  Fe20  1  0.56848600  0.91990700  0.80740800  1
  Fe3+  Fe21  1  0.16062400  0.47379600  0.56500300  1
  Fe3+  Fe22  1  0.63419300  0.54958100  0.26971200  1
  Fe3+  Fe23  1  0.40378400  0.39437300  0.04939500  1
  Fe3+  Fe24  1  0.42728700  0.17807100  0.87539900  1
  Fe3+  Fe25  1  0.24597900  0.94356600  0.86396000  1
  Fe3+  Fe26  1  0.96845800  0.89309000  0.41462700  1
  Fe3+  Fe27  1  0.59161500  0.75834900  0.48574800  1
  Fe3+  Fe28  1  0.80806400  0.80085400  0.15344700  1
  Fe3+  Fe29  1  0.89037900  0.29274200  0.55493900  1
  Fe3+  Fe30  1  0.37000000  0.24330200  0.36883500  1
  Fe3+  Fe31  1  0.47542500  0.62506300  0.72993200  1
  O2-  O32  1  0.67021000  0.15656500  0.10603300  1
  O2-  O33  1  0.71521200  0.60572300  0.43613600  1
  O2-  O34  1  0.01891900  0.54410200  0.87330500  1
  O2-  O35  1  0.45486800  0.64148400  0.55390000  1
  O2-  O36  1  0.56195200  0.15582200  0.75893900  1
  O2-  O37  1  0.76004000  0.88931400  0.47280100  1
  O2-  O38  1  0.17558600  0.35804500  0.97350700  1
  O2-  O39  1  0.08672000  0.33556800  0.66015000  1
  O2-  O40  1  0.13348200  0.50075100  0.20183600  1
  O2-  O41  1  0.40913500  0.86485100  0.45503500  1
  O2-  O42  1  0.34915200  0.58069300  0.05211700  1
  O2-  O43  1  0.10401900  0.04043200  0.95808300  1
  O2-  O44  1  0.63059100  0.51884600  0.79441400  1
  O2-  O45  1  0.83863100  0.11197600  0.59815900  1
  O2-  O46  1  0.51178200  0.35522500  0.91993900  1
  O2-  O47  1  0.84670800  0.28095300  0.90917000  1
  O2-  O48  1  0.98006700  0.22594900  0.13749000  1
  O2-  O49  1  0.86760700  0.72673300  0.99806800  1
  O2-  O50  1  0.78069400  0.42398500  0.22094700  1
  O2-  O51  1  0.11862500  0.91798300  0.30256800  1
  O2-  O52  1  0.24673100  0.11206500  0.77086300  1
  O2-  O53  1  0.52148400  0.10818900  0.30784100  1
  O2-  O54  1  0.32638600  0.11685700  0.47800300  1
  O2-  O55  1  0.64607900  0.63429600  0.11305300  1
  O2-  O56  1  0.16680100  0.63086600  0.43921200  1
  O2-  O57  1  0.12364400  0.89560300  0.55232800  1
  O2-  O58  1  0.99109400  0.59652000  0.60523900  1
  O2-  O59  1  0.30449500  0.40036500  0.44201400  1
  O2-  O60  1  0.63903300  0.84246800  0.66247000  1
  O2-  O61  1  0.22452900  0.15347400  0.24189400  1
  O2-  O62  1  0.89669800  0.06177000  0.35436500  1
  O2-  O63  1  0.98926000  0.40861500  0.42401600  1
  O2-  O64  1  0.26190300  0.60511600  0.70354200  1
  O2-  O65  1  0.35588900  0.88335700  0.71270900  1
  O2-  O66  1  0.90152300  0.73446200  0.30794900  1
  O2-  O67  1  0.37799400  0.19830000  0.05615400  1
  O2-  O68  1  0.54480400  0.74478800  0.87587100  1
  O2-  O69  1  0.72263500  0.26405100  0.42258200  1
  O2-  O70  1  0.48762000  0.39210300  0.23698700  1
  O2-  O71  1  0.81148600  0.36932300  0.69124900  1
  O2-  O72  1  0.35324700  0.89954900  0.16099100  1
  O2-  O73  1  0.96348500  0.83992600  0.75229000  1
  O2-  O74  1  0.62533900  0.87989900  0.15888500  1
  O2-  O75  1  0.77906500  0.98920800  0.86262300  1
  O2-  O76  1  0.16461500  0.78540300  0.91887100  1
  O2-  O77  1  0.45351100  0.99452500  0.93644100  1
  O2-  O78  1  0.90035000  0.96625500  0.09681800  1
  O2-  O79  1  0.46462500  0.66169100  0.29784700  1
