# generated using pymatgen
data_Fe2O3
_symmetry_space_group_name_H-M   'P 1'
_cell_length_a   10.38679526
_cell_length_b   5.32379905
_cell_length_c   5.35504845
_cell_angle_alpha   90.00000000
_cell_angle_beta   91.79380647
_cell_angle_gamma   90.00000000
_symmetry_Int_Tables_number   1
_chemical_formula_structural   Fe2O3
_chemical_formula_sum   'Fe8 O12'
_cell_volume   295.97412904
_cell_formula_units_Z   4
loop_
 _symmetry_equiv_pos_site_id
 _symmetry_equiv_pos_as_xyz
  1  'x, y, z'
loop_
 _atom_type_symbol
 _atom_type_oxidation_number
  Fe3+  3.0
  O2-  -2.0
loop_
 _atom_site_type_symbol
 _atom_site_label
 _atom_site_symmetry_multiplicity
 _atom_site_fract_x
 _atom_site_fract_y
 _atom_site_fract_z
 _atom_site_occupancy
  Fe3+  Fe0  1  0.17483450  0.75257950  0.24452900  1
  Fe3+  Fe1  1  0.32516550  0.74742050  0.75547100  1
  Fe3+  Fe2  1  0.17483450  0.24742050  0.74452900  1
  Fe3+  Fe3  1  0.32516550  0.25257950  0.25547100  1
  Fe3+  Fe4  1  0.67483450  0.25257950  0.24452900  1
  Fe3+  Fe5  1  0.82516550  0.24742050  0.75547100  1
  Fe3+  Fe6  1  0.67483450  0.74742050  0.74452900  1
  Fe3+  Fe7  1  0.82516550  0.75257950  0.25547100  1
  O2-  O8  1  0.24755650  0.49865850  0.49824000  1
  O2-  O9  1  0.50000000  0.73728400  0.75000000  1
  O2-  O10  1  0.25244350  0.99865850  0.00176000  1
  O2-  O11  1  0.25244350  0.00134150  0.50176000  1
  O2-  O12  1  0.00000000  0.76271600  0.25000000  1
  O2-  O13  1  0.24755650  0.50134150  0.99824000  1
  O2-  O14  1  0.74755650  0.99865850  0.49824000  1
  O2-  O15  1  0.00000000  0.23728400  0.75000000  1
  O2-  O16  1  0.75244350  0.49865850  0.00176000  1
  O2-  O17  1  0.75244350  0.50134150  0.50176000  1
  O2-  O18  1  0.50000000  0.26271600  0.25000000  1
  O2-  O19  1  0.74755650  0.00134150  0.99824000  1
