# generated using pymatgen
data_Fe2O3
_symmetry_space_group_name_H-M   'P 1'
_cell_length_a   8.64756113
_cell_length_b   10.37500232
_cell_length_c   10.93536279
_cell_angle_alpha   89.30778347
_cell_angle_beta   86.18267917
_cell_angle_gamma   88.15218687
_symmetry_Int_Tables_number   1
_chemical_formula_structural   Fe2O3
_chemical_formula_sum   'Fe32 O48'
_cell_volume   978.36970455
_cell_formula_units_Z   16
loop_
 _symmetry_equiv_pos_site_id
 _symmetry_equiv_pos_as_xyz
  1  'x, y, z'
loop_
 _atom_type_symbol
 _atom_type_oxidation_number
  Fe3+  3.0
  O2-  -2.0
loop_
 _atom_site_type_symbol
 _atom_site_label
 _atom_site_symmetry_multiplicity
 _atom_site_fract_x
 _atom_site_fract_y
 _atom_site_fract_z
 _atom_site_occupancy
  Fe3+  Fe0  1  0.36302800  0.04951600  0.93143700  1
  Fe3+  Fe1  1  0.69937800  0.52864100  0.92826000  1
  Fe3+  Fe2  1  0.05735700  0.59500500  0.75960200  1
  Fe3+  Fe3  1  0.46320600  0.54465500  0.17606900  1
  Fe3+  Fe4  1  0.32199400  0.23254100  0.38322500  1
  Fe3+  Fe5  1  0.71246000  0.56957500  0.42515600  1
  Fe3+  Fe6  1  0.58266500  0.79181000  0.19352000  1
  Fe3+  Fe7  1  0.38335200  0.04937800  0.59665100  1
  Fe3+  Fe8  1  0.93197300  0.66429400  0.04833000  1
  Fe3+  Fe9  1  0.65214100  0.90226500  0.42624700  1
  Fe3+  Fe10  1  0.07416300  0.07284900  0.08179600  1
  Fe3+  Fe11  1  0.27584100  0.80523900  0.99345800  1
  Fe3+  Fe12  1  0.36200300  0.78561800  0.53879200  1
  Fe3+  Fe13  1  0.82850100  0.36553400  0.19122300  1
  Fe3+  Fe14  1  0.69799700  0.24420200  0.47748300  1
  Fe3+  Fe15  1  0.69849000  0.91929000  0.96789800  1
  Fe3+  Fe16  1  0.77017800  0.03144600  0.20689400  1
  Fe3+  Fe17  1  0.31268900  0.53443200  0.47279000  1
  Fe3+  Fe18  1  0.58397900  0.49879700  0.68268400  1
  Fe3+  Fe19  1  0.98320700  0.06695100  0.43791400  1
  Fe3+  Fe20  1  0.19513700  0.27435900  0.79788000  1
  Fe3+  Fe21  1  0.99871000  0.41879500  0.50722400  1
  Fe3+  Fe22  1  0.87171800  0.28440900  0.70303300  1
  Fe3+  Fe23  1  0.53267200  0.27007500  0.09440800  1
  Fe3+  Fe24  1  0.23889700  0.93806900  0.29130700  1
  Fe3+  Fe25  1  0.76128400  0.85617600  0.66447100  1
  Fe3+  Fe26  1  0.05065300  0.97256600  0.75552400  1
  Fe3+  Fe27  1  0.10135200  0.63868700  0.26152000  1
  Fe3+  Fe28  1  0.16434000  0.36088700  0.06856200  1
  Fe3+  Fe29  1  0.55122000  0.24197700  0.78615900  1
  Fe3+  Fe30  1  0.99685300  0.74176700  0.51185100  1
  Fe3+  Fe31  1  0.34267800  0.52338600  0.88333800  1
  O2-  O32  1  0.28990500  0.54628100  0.29884000  1
  O2-  O33  1  0.13718100  0.78848400  0.36864200  1
  O2-  O34  1  0.50140600  0.58978200  0.53716100  1
  O2-  O35  1  0.02647000  0.02686600  0.26547600  1
  O2-  O36  1  0.21869400  0.37145300  0.47568000  1
  O2-  O37  1  0.21134900  0.19718700  0.97280700  1
  O2-  O38  1  0.65804900  0.43928200  0.08692000  1
  O2-  O39  1  0.72685600  0.73951400  0.04081800  1
  O2-  O40  1  0.69766800  0.18544700  0.65798800  1
  O2-  O41  1  0.75756800  0.74867300  0.49412200  1
  O2-  O42  1  0.36677200  0.26708000  0.21738200  1
  O2-  O43  1  0.27258400  0.97253300  0.11472200  1
  O2-  O44  1  0.55772500  0.91865200  0.59761200  1
  O2-  O45  1  0.98569600  0.51253800  0.15331100  1
  O2-  O46  1  0.76802400  0.86069400  0.27164900  1
  O2-  O47  1  0.09673600  0.74705000  0.11235500  1
  O2-  O48  1  0.58925100  0.97261100  0.13048200  1
  O2-  O49  1  0.75194000  0.07382000  0.39512200  1
  O2-  O50  1  0.18679800  0.64413200  0.58312100  1
  O2-  O51  1  0.41447500  0.71027500  0.10765000  1
  O2-  O52  1  0.71058600  0.37730600  0.81549700  1
  O2-  O53  1  0.93549300  0.24103200  0.50218400  1
  O2-  O54  1  0.36935400  0.44482400  0.04462100  1
  O2-  O55  1  0.75515000  0.44329200  0.57203100  1
  O2-  O56  1  0.03006300  0.16326800  0.75502200  1
  O2-  O57  1  0.21555400  0.67582800  0.86317400  1
  O2-  O58  1  0.90270200  0.58089600  0.89808700  1
  O2-  O59  1  0.61180100  0.62317600  0.27898500  1
  O2-  O60  1  0.91164400  0.70831000  0.68246500  1
  O2-  O61  1  0.48263400  0.89284900  0.91403600  1
  O2-  O62  1  0.22418600  0.07169700  0.43033800  1
  O2-  O63  1  0.72622800  0.38588900  0.35203300  1
  O2-  O64  1  0.44592900  0.86565700  0.36498100  1
  O2-  O65  1  0.14595700  0.42624000  0.89658400  1
  O2-  O66  1  0.87736600  0.00632600  0.04737300  1
  O2-  O67  1  0.16025300  0.95170200  0.90694200  1
  O2-  O68  1  0.01121500  0.25777600  0.15010700  1
  O2-  O69  1  0.94088800  0.93629700  0.56732900  1
  O2-  O70  1  0.70950200  0.20596400  0.17441700  1
  O2-  O71  1  0.40534800  0.39224200  0.74656400  1
  O2-  O72  1  0.54101400  0.16854900  0.94839200  1
  O2-  O73  1  0.03140800  0.41932600  0.68356600  1
  O2-  O74  1  0.96268900  0.57427200  0.40817600  1
  O2-  O75  1  0.54643200  0.60315200  0.82758200  1
  O2-  O76  1  0.36615700  0.13755000  0.75510400  1
  O2-  O77  1  0.47899600  0.19442700  0.49333500  1
  O2-  O78  1  0.82589400  0.93031500  0.81040400  1
  O2-  O79  1  0.23424600  0.92323900  0.64594900  1
