# generated using pymatgen
data_Fe2O3
_symmetry_space_group_name_H-M   'P 1'
_cell_length_a   8.52521600
_cell_length_b   8.52521600
_cell_length_c   25.59301600
_cell_angle_alpha   90.00000000
_cell_angle_beta   90.00000000
_cell_angle_gamma   90.00000000
_symmetry_Int_Tables_number   1
_chemical_formula_structural   Fe2O3
_chemical_formula_sum   'Fe64 O96'
_cell_volume   1860.08268859
_cell_formula_units_Z   32
loop_
 _symmetry_equiv_pos_site_id
 _symmetry_equiv_pos_as_xyz
  1  'x, y, z'
loop_
 _atom_type_symbol
 _atom_type_oxidation_number
  Fe3+  3.0
  O2-  -2.0
loop_
 _atom_site_type_symbol
 _atom_site_label
 _atom_site_symmetry_multiplicity
 _atom_site_fract_x
 _atom_site_fract_y
 _atom_site_fract_z
 _atom_site_occupancy
  Fe3+  Fe0  1  0.24738500  0.51341500  0.71079900  1
  Fe3+  Fe1  1  0.75261500  0.48658500  0.21079900  1
  Fe3+  Fe2  1  0.01341500  0.25261500  0.46079900  1
  Fe3+  Fe3  1  0.98658500  0.74738500  0.96079900  1
  Fe3+  Fe4  1  0.48658500  0.75261500  0.78920100  1
  Fe3+  Fe5  1  0.51341500  0.24738500  0.28920100  1
  Fe3+  Fe6  1  0.25261500  0.01341500  0.53920100  1
  Fe3+  Fe7  1  0.74738500  0.98658500  0.03920100  1
  Fe3+  Fe8  1  0.75737100  0.49872000  0.54396500  1
  Fe3+  Fe9  1  0.24262900  0.50128000  0.04396500  1
  Fe3+  Fe10  1  0.99872000  0.74262900  0.29396500  1
  Fe3+  Fe11  1  0.00128000  0.25737100  0.79396500  1
  Fe3+  Fe12  1  0.50128000  0.24262900  0.95603500  1
  Fe3+  Fe13  1  0.49872000  0.75737100  0.45603500  1
  Fe3+  Fe14  1  0.74262900  0.99872000  0.70603500  1
  Fe3+  Fe15  1  0.25737100  0.00128000  0.20603500  1
  Fe3+  Fe16  1  0.99351400  0.74132800  0.62619900  1
  Fe3+  Fe17  1  0.00648600  0.25867200  0.12619900  1
  Fe3+  Fe18  1  0.24132800  0.50648600  0.37619900  1
  Fe3+  Fe19  1  0.75867200  0.49351400  0.87619900  1
  Fe3+  Fe20  1  0.25867200  0.00648600  0.87380100  1
  Fe3+  Fe21  1  0.74132800  0.99351400  0.37380100  1
  Fe3+  Fe22  1  0.50648600  0.24132800  0.62380100  1
  Fe3+  Fe23  1  0.49351400  0.75867200  0.12380100  1
  Fe3+  Fe24  1  0.11040300  0.88959700  0.75000000  1
  Fe3+  Fe25  1  0.88959700  0.11040300  0.25000000  1
  Fe3+  Fe26  1  0.38959700  0.38959700  0.50000000  1
  Fe3+  Fe27  1  0.61040300  0.61040300  0.00000000  1
  Fe3+  Fe28  1  0.88454200  0.12129900  0.58594100  1
  Fe3+  Fe29  1  0.11545800  0.87870100  0.08594100  1
  Fe3+  Fe30  1  0.62129900  0.61545800  0.33594100  1
  Fe3+  Fe31  1  0.37870100  0.38454200  0.83594100  1
  Fe3+  Fe32  1  0.87870100  0.11545800  0.91405900  1
  Fe3+  Fe33  1  0.12129900  0.88454200  0.41405900  1
  Fe3+  Fe34  1  0.61545800  0.62129900  0.66405900  1
  Fe3+  Fe35  1  0.38454200  0.37870100  0.16405900  1
  Fe3+  Fe36  1  0.88550600  0.36889500  0.66867800  1
  Fe3+  Fe37  1  0.11449400  0.63110500  0.16867800  1
  Fe3+  Fe38  1  0.86889500  0.61449400  0.41867800  1
  Fe3+  Fe39  1  0.13110500  0.38550600  0.91867800  1
  Fe3+  Fe40  1  0.63110500  0.11449400  0.83132200  1
  Fe3+  Fe41  1  0.36889500  0.88550600  0.33132200  1
  Fe3+  Fe42  1  0.61449400  0.86889500  0.58132200  1
  Fe3+  Fe43  1  0.38550600  0.13110500  0.08132200  1
  Fe3+  Fe44  1  0.35670700  0.87602600  0.66197500  1
  Fe3+  Fe45  1  0.64329300  0.12397400  0.16197500  1
  Fe3+  Fe46  1  0.37602600  0.14329300  0.41197500  1
  Fe3+  Fe47  1  0.62397400  0.85670700  0.91197500  1
  Fe3+  Fe48  1  0.12397400  0.64329300  0.83802500  1
  Fe3+  Fe49  1  0.87602600  0.35670700  0.33802500  1
  Fe3+  Fe50  1  0.14329300  0.37602600  0.58802500  1
  Fe3+  Fe51  1  0.85670700  0.62397400  0.08802500  1
  Fe3+  Fe52  1  0.36337300  0.13051400  0.74637700  1
  Fe3+  Fe53  1  0.63662700  0.86948600  0.24637700  1
  Fe3+  Fe54  1  0.63051400  0.13662700  0.49637700  1
  Fe3+  Fe55  1  0.36948600  0.86337300  0.99637700  1
  Fe3+  Fe56  1  0.86948600  0.63662700  0.75362300  1
  Fe3+  Fe57  1  0.13051400  0.36337300  0.25362300  1
  Fe3+  Fe58  1  0.13662700  0.63051400  0.50362300  1
  Fe3+  Fe59  1  0.86337300  0.36948600  0.00362300  1
  Fe3+  Fe60  1  0.62443700  0.37556300  0.75000000  1
  Fe3+  Fe61  1  0.37556300  0.62443700  0.25000000  1
  Fe3+  Fe62  1  0.87556300  0.87556300  0.50000000  1
  Fe3+  Fe63  1  0.12443700  0.12443700  0.00000000  1
  O2-  O64  1  0.10899800  0.64048200  0.75519600  1
  O2-  O65  1  0.89100200  0.35951800  0.25519600  1
  O2-  O66  1  0.14048200  0.39100200  0.50519600  1
  O2-  O67  1  0.85951800  0.60899800  0.00519600  1
  O2-  O68  1  0.35951800  0.89100200  0.74480400  1
  O2-  O69  1  0.64048200  0.10899800  0.24480400  1
  O2-  O70  1  0.39100200  0.14048200  0.49480400  1
  O2-  O71  1  0.60899800  0.85951800  0.99480400  1
  O2-  O72  1  0.85946300  0.61150400  0.67161100  1
  O2-  O73  1  0.14053700  0.38849600  0.17161100  1
  O2-  O74  1  0.11150400  0.64053700  0.42161100  1
  O2-  O75  1  0.88849600  0.35946300  0.92161100  1
  O2-  O76  1  0.38849600  0.14053700  0.82838900  1
  O2-  O77  1  0.61150400  0.85946300  0.32838900  1
  O2-  O78  1  0.64053700  0.11150400  0.57838900  1
  O2-  O79  1  0.35946300  0.88849600  0.07838900  1
  O2-  O80  1  0.88620400  0.36232400  0.58800200  1
  O2-  O81  1  0.11379600  0.63767600  0.08800200  1
  O2-  O82  1  0.86232400  0.61379600  0.33800200  1
  O2-  O83  1  0.13767600  0.38620400  0.83800200  1
  O2-  O84  1  0.63767600  0.11379600  0.91199800  1
  O2-  O85  1  0.36232400  0.88620400  0.41199800  1
  O2-  O86  1  0.61379600  0.86232400  0.66199800  1
  O2-  O87  1  0.38620400  0.13767600  0.16199800  1
  O2-  O88  1  0.61728400  0.13527700  0.75235400  1
  O2-  O89  1  0.38271600  0.86472300  0.25235400  1
  O2-  O90  1  0.63527700  0.88271600  0.50235400  1
  O2-  O91  1  0.36472300  0.11728400  0.00235400  1
  O2-  O92  1  0.86472300  0.38271600  0.74764600  1
  O2-  O93  1  0.13527700  0.61728400  0.24764600  1
  O2-  O94  1  0.88271600  0.63527700  0.49764600  1
  O2-  O95  1  0.11728400  0.36472300  0.99764600  1
  O2-  O96  1  0.39255000  0.11183800  0.67009400  1
  O2-  O97  1  0.60745000  0.88816200  0.17009400  1
  O2-  O98  1  0.61183800  0.10745000  0.42009400  1
  O2-  O99  1  0.38816200  0.89255000  0.92009400  1
  O2-  O100  1  0.88816200  0.60745000  0.82990600  1
  O2-  O101  1  0.11183800  0.39255000  0.32990600  1
  O2-  O102  1  0.10745000  0.61183800  0.57990600  1
  O2-  O103  1  0.89255000  0.38816200  0.07990600  1
  O2-  O104  1  0.38320800  0.89386200  0.58432600  1
  O2-  O105  1  0.61679200  0.10613800  0.08432600  1
  O2-  O106  1  0.39386200  0.11679200  0.33432600  1
  O2-  O107  1  0.60613800  0.88320800  0.83432600  1
  O2-  O108  1  0.10613800  0.61679200  0.91567400  1
  O2-  O109  1  0.89386200  0.38320800  0.41567400  1
  O2-  O110  1  0.11679200  0.39386200  0.66567400  1
  O2-  O111  1  0.88320800  0.60613800  0.16567400  1
  O2-  O112  1  0.87857300  0.86842500  0.74534000  1
  O2-  O113  1  0.12142700  0.13157500  0.24534000  1
  O2-  O114  1  0.36842500  0.62142700  0.49534000  1
  O2-  O115  1  0.63157500  0.37857300  0.99534000  1
  O2-  O116  1  0.13157500  0.12142700  0.75466000  1
  O2-  O117  1  0.86842500  0.87857300  0.25466000  1
  O2-  O118  1  0.62142700  0.36842500  0.50466000  1
  O2-  O119  1  0.37857300  0.63157500  0.00466000  1
  O2-  O120  1  0.63197100  0.38302600  0.66980000  1
  O2-  O121  1  0.36802900  0.61697400  0.16980000  1
  O2-  O122  1  0.88302600  0.86802900  0.41980000  1
  O2-  O123  1  0.11697400  0.13197100  0.91980000  1
  O2-  O124  1  0.61697400  0.36802900  0.83020000  1
  O2-  O125  1  0.38302600  0.63197100  0.33020000  1
  O2-  O126  1  0.86802900  0.88302600  0.58020000  1
  O2-  O127  1  0.13197100  0.11697400  0.08020000  1
  O2-  O128  1  0.11321300  0.14043100  0.57753200  1
  O2-  O129  1  0.88678700  0.85956900  0.07753200  1
  O2-  O130  1  0.64043100  0.38678700  0.32753200  1
  O2-  O131  1  0.35956900  0.61321300  0.82753200  1
  O2-  O132  1  0.85956900  0.88678700  0.92246800  1
  O2-  O133  1  0.14043100  0.11321300  0.42246800  1
  O2-  O134  1  0.38678700  0.64043100  0.67246800  1
  O2-  O135  1  0.61321300  0.35956900  0.17246800  1
  O2-  O136  1  0.85829500  0.13671200  0.66309300  1
  O2-  O137  1  0.14170500  0.86328800  0.16309300  1
  O2-  O138  1  0.63671200  0.64170500  0.41309300  1
  O2-  O139  1  0.36328800  0.35829500  0.91309300  1
  O2-  O140  1  0.86328800  0.14170500  0.83690700  1
  O2-  O141  1  0.13671200  0.85829500  0.33690700  1
  O2-  O142  1  0.64170500  0.63671200  0.58690700  1
  O2-  O143  1  0.35829500  0.36328800  0.08690700  1
  O2-  O144  1  0.12880600  0.85862900  0.66983300  1
  O2-  O145  1  0.87119400  0.14137100  0.16983300  1
  O2-  O146  1  0.35862900  0.37119400  0.41983300  1
  O2-  O147  1  0.64137100  0.62880600  0.91983300  1
  O2-  O148  1  0.14137100  0.87119400  0.83016700  1
  O2-  O149  1  0.85862900  0.12880600  0.33016700  1
  O2-  O150  1  0.37119400  0.35862900  0.58016700  1
  O2-  O151  1  0.62880600  0.64137100  0.08016700  1
  O2-  O152  1  0.63132400  0.61657400  0.74808500  1
  O2-  O153  1  0.36867600  0.38342600  0.24808500  1
  O2-  O154  1  0.11657400  0.86867600  0.49808500  1
  O2-  O155  1  0.88342600  0.13132400  0.99808500  1
  O2-  O156  1  0.38342600  0.36867600  0.75191500  1
  O2-  O157  1  0.61657400  0.63132400  0.25191500  1
  O2-  O158  1  0.86867600  0.11657400  0.50191500  1
  O2-  O159  1  0.13132400  0.88342600  0.00191500  1
