# generated using pymatgen
data_Fe2O3
_symmetry_space_group_name_H-M   'P 1'
_cell_length_a   9.82123796
_cell_length_b   10.02216921
_cell_length_c   10.81936465
_cell_angle_alpha   95.46998238
_cell_angle_beta   90.87513817
_cell_angle_gamma   93.31263954
_symmetry_Int_Tables_number   1
_chemical_formula_structural   Fe2O3
_chemical_formula_sum   'Fe32 O48'
_cell_volume   1058.09898466
_cell_formula_units_Z   16
loop_
 _symmetry_equiv_pos_site_id
 _symmetry_equiv_pos_as_xyz
  1  'x, y, z'
loop_
 _atom_type_symbol
 _atom_type_oxidation_number
  Fe3+  3.0
  O2-  -2.0
loop_
 _atom_site_type_symbol
 _atom_site_label
 _atom_site_symmetry_multiplicity
 _atom_site_fract_x
 _atom_site_fract_y
 _atom_site_fract_z
 _atom_site_occupancy
  Fe3+  Fe0  1  0.87551200  0.41446600  0.72472300  1
  Fe3+  Fe1  1  0.68773500  0.56540800  0.04680100  1
  Fe3+  Fe2  1  0.81978700  0.69705400  0.83338600  1
  Fe3+  Fe3  1  0.46447400  0.92037100  0.16285900  1
  Fe3+  Fe4  1  0.22687200  0.48735500  0.39589200  1
  Fe3+  Fe5  1  0.51883700  0.42691200  0.45145200  1
  Fe3+  Fe6  1  0.03706600  0.46467200  0.96208500  1
  Fe3+  Fe7  1  0.02122300  0.63175500  0.53634300  1
  Fe3+  Fe8  1  0.48404700  0.08673000  0.70190400  1
  Fe3+  Fe9  1  0.68697700  0.17767500  0.51341800  1
  Fe3+  Fe10  1  0.22414900  0.87728200  0.74334700  1
  Fe3+  Fe11  1  0.71970500  0.32315800  0.25022000  1
  Fe3+  Fe12  1  0.70410000  0.69196700  0.32846400  1
  Fe3+  Fe13  1  0.34480200  0.16718400  0.29022000  1
  Fe3+  Fe14  1  0.98138300  0.26053000  0.48080700  1
  Fe3+  Fe15  1  0.73497700  0.22755500  0.95336700  1
  Fe3+  Fe16  1  0.76107700  0.91818500  0.11579500  1
  Fe3+  Fe17  1  0.70249600  0.68391700  0.59022400  1
  Fe3+  Fe18  1  0.55916800  0.41655700  0.74599700  1
  Fe3+  Fe19  1  0.95447100  0.17164500  0.17545800  1
  Fe3+  Fe20  1  0.32530100  0.60430700  0.67539800  1
  Fe3+  Fe21  1  0.22122800  0.04551000  0.51936800  1
  Fe3+  Fe22  1  0.22529000  0.28843300  0.76162100  1
  Fe3+  Fe23  1  0.32832800  0.60860900  0.11027100  1
  Fe3+  Fe24  1  0.05110300  0.76245700  0.00760600  1
  Fe3+  Fe25  1  0.97101800  0.98684000  0.85389500  1
  Fe3+  Fe26  1  0.16965500  0.81387900  0.30609200  1
  Fe3+  Fe27  1  0.49939800  0.91087200  0.44878300  1
  Fe3+  Fe28  1  0.38906800  0.14375900  0.95701500  1
  Fe3+  Fe29  1  0.20139300  0.31991600  0.12154700  1
  Fe3+  Fe30  1  0.92459200  0.92968600  0.52770300  1
  Fe3+  Fe31  1  0.55894400  0.78923700  0.86195100  1
  O2-  O32  1  0.58244200  0.74402500  0.46156600  1
  O2-  O33  1  0.13581600  0.89680800  0.90740100  1
  O2-  O34  1  0.60963200  0.51374800  0.60735100  1
  O2-  O35  1  0.75043400  0.72344600  0.16555300  1
  O2-  O36  1  0.34154700  0.00696300  0.37330700  1
  O2-  O37  1  0.32937500  0.78515600  0.20081900  1
  O2-  O38  1  0.72627500  0.36938600  0.82773400  1
  O2-  O39  1  0.71595700  0.38405900  0.08398500  1
  O2-  O40  1  0.13740700  0.19961400  0.57585100  1
  O2-  O41  1  0.60954200  0.01436900  0.57462000  1
  O2-  O42  1  0.26001500  0.48012300  0.21720100  1
  O2-  O43  1  0.90439100  0.59863000  0.96048600  1
  O2-  O44  1  0.88493900  0.14171900  0.87925700  1
  O2-  O45  1  0.59937600  0.92707900  0.28892700  1
  O2-  O46  1  0.65852000  0.50163300  0.33601600  1
  O2-  O47  1  0.59858900  0.24676300  0.37137200  1
  O2-  O48  1  0.75919200  0.13698200  0.11502300  1
  O2-  O49  1  0.93017000  0.98573100  0.19004000  1
  O2-  O50  1  0.85410800  0.73813100  0.47522700  1
  O2-  O51  1  0.17291000  0.61157800  0.99802400  1
  O2-  O52  1  0.29240800  0.30067000  0.96975000  1
  O2-  O53  1  0.08736100  0.92592900  0.43531800  1
  O2-  O54  1  0.58015700  0.88785400  0.02114900  1
  O2-  O55  1  0.30240600  0.08825900  0.79392500  1
  O2-  O56  1  0.13236800  0.65822500  0.38945600  1
  O2-  O57  1  0.69997600  0.81000000  0.73630900  1
  O2-  O58  1  0.34706500  0.32810900  0.39290200  1
  O2-  O59  1  0.50281500  0.57501200  0.07804700  1
  O2-  O60  1  0.02413700  0.93640600  0.68486600  1
  O2-  O61  1  0.04872800  0.39151600  0.79582800  1
  O2-  O62  1  0.04708400  0.82162700  0.17454200  1
  O2-  O63  1  0.89759500  0.28731300  0.31537300  1
  O2-  O64  1  0.87663500  0.60318800  0.67817800  1
  O2-  O65  1  0.56115400  0.13984300  0.87466200  1
  O2-  O66  1  0.87078900  0.85577400  0.95068900  1
  O2-  O67  1  0.36639600  0.44906200  0.75497400  1
  O2-  O68  1  0.40640000  0.09664100  0.12674100  1
  O2-  O69  1  0.85851500  0.08452000  0.47524900  1
  O2-  O70  1  0.15831700  0.18417200  0.22829400  1
  O2-  O71  1  0.38768900  0.76853700  0.78389500  1
  O2-  O72  1  0.01569800  0.32762200  0.07251800  1
  O2-  O73  1  0.34944600  0.94149800  0.60002400  1
  O2-  O74  1  0.52863100  0.25281000  0.63012300  1
  O2-  O75  1  0.64106300  0.61840100  0.87611300  1
  O2-  O76  1  0.06957900  0.44688000  0.50010900  1
  O2-  O77  1  0.82402400  0.31786500  0.57462100  1
  O2-  O78  1  0.15982700  0.69584600  0.66254000  1
  O2-  O79  1  0.37353600  0.56131300  0.50605100  1
