# generated using pymatgen
data_Fe2O3
_symmetry_space_group_name_H-M   'P 1'
_cell_length_a   3.01940800
_cell_length_b   9.90929400
_cell_length_c   15.91706500
_cell_angle_alpha   90.00000000
_cell_angle_beta   90.00000000
_cell_angle_gamma   90.00000000
_symmetry_Int_Tables_number   1
_chemical_formula_structural   Fe2O3
_chemical_formula_sum   'Fe16 O24'
_cell_volume   476.24179333
_cell_formula_units_Z   8
loop_
 _symmetry_equiv_pos_site_id
 _symmetry_equiv_pos_as_xyz
  1  'x, y, z'
loop_
 _atom_type_symbol
 _atom_type_oxidation_number
  Fe3+  3.0
  O2-  -2.0
loop_
 _atom_site_type_symbol
 _atom_site_label
 _atom_site_symmetry_multiplicity
 _atom_site_fract_x
 _atom_site_fract_y
 _atom_site_fract_z
 _atom_site_occupancy
  Fe3+  Fe0  1  0.00000000  0.36530300  0.54739400  1
  Fe3+  Fe1  1  0.50000000  0.13469700  0.45260600  1
  Fe3+  Fe2  1  0.00000000  0.36530300  0.95260600  1
  Fe3+  Fe3  1  0.50000000  0.13469700  0.04739400  1
  Fe3+  Fe4  1  0.50000000  0.40379300  0.14729900  1
  Fe3+  Fe5  1  0.00000000  0.09620700  0.85270100  1
  Fe3+  Fe6  1  0.00000000  0.09620700  0.64729900  1
  Fe3+  Fe7  1  0.50000000  0.40379300  0.35270100  1
  Fe3+  Fe8  1  0.50000000  0.86530300  0.54739400  1
  Fe3+  Fe9  1  0.00000000  0.63469700  0.45260600  1
  Fe3+  Fe10  1  0.50000000  0.86530300  0.95260600  1
  Fe3+  Fe11  1  0.00000000  0.63469700  0.04739400  1
  Fe3+  Fe12  1  0.00000000  0.90379300  0.14729900  1
  Fe3+  Fe13  1  0.50000000  0.59620700  0.85270100  1
  Fe3+  Fe14  1  0.50000000  0.59620700  0.64729900  1
  Fe3+  Fe15  1  0.00000000  0.90379300  0.35270100  1
  O2-  O16  1  0.00000000  0.00000000  0.00000000  1
  O2-  O17  1  0.00000000  0.00000000  0.50000000  1
  O2-  O18  1  0.50000000  0.02870600  0.35251900  1
  O2-  O19  1  0.00000000  0.47129400  0.64748100  1
  O2-  O20  1  0.00000000  0.47129400  0.85251900  1
  O2-  O21  1  0.50000000  0.02870600  0.14748100  1
  O2-  O22  1  0.00000000  0.27188700  0.42749400  1
  O2-  O23  1  0.50000000  0.22811300  0.57250600  1
  O2-  O24  1  0.50000000  0.22811300  0.92749400  1
  O2-  O25  1  0.00000000  0.27188700  0.07250600  1
  O2-  O26  1  0.50000000  0.32055700  0.25000000  1
  O2-  O27  1  0.00000000  0.17944300  0.75000000  1
  O2-  O28  1  0.50000000  0.50000000  0.00000000  1
  O2-  O29  1  0.50000000  0.50000000  0.50000000  1
  O2-  O30  1  0.00000000  0.52870600  0.35251900  1
  O2-  O31  1  0.50000000  0.97129400  0.64748100  1
  O2-  O32  1  0.50000000  0.97129400  0.85251900  1
  O2-  O33  1  0.00000000  0.52870600  0.14748100  1
  O2-  O34  1  0.50000000  0.77188700  0.42749400  1
  O2-  O35  1  0.00000000  0.72811300  0.57250600  1
  O2-  O36  1  0.00000000  0.72811300  0.92749400  1
  O2-  O37  1  0.50000000  0.77188700  0.07250600  1
  O2-  O38  1  0.00000000  0.82055700  0.25000000  1
  O2-  O39  1  0.50000000  0.67944300  0.75000000  1
