# generated using pymatgen
data_Fe2O3
_symmetry_space_group_name_H-M   'P 1'
_cell_length_a   13.47427600
_cell_length_b   9.46595200
_cell_length_c   9.49221284
_cell_angle_alpha   90.00000000
_cell_angle_beta   134.77980108
_cell_angle_gamma   90.00000000
_symmetry_Int_Tables_number   1
_chemical_formula_structural   Fe2O3
_chemical_formula_sum   'Fe32 O48'
_cell_volume   859.37929777
_cell_formula_units_Z   16
loop_
 _symmetry_equiv_pos_site_id
 _symmetry_equiv_pos_as_xyz
  1  'x, y, z'
loop_
 _atom_type_symbol
 _atom_type_oxidation_number
  Fe3+  3.0
  O2-  -2.0
loop_
 _atom_site_type_symbol
 _atom_site_label
 _atom_site_symmetry_multiplicity
 _atom_site_fract_x
 _atom_site_fract_y
 _atom_site_fract_z
 _atom_site_occupancy
  Fe3+  Fe0  1  0.00000000  0.46352700  0.00000000  1
  Fe3+  Fe1  1  0.74816900  0.49838100  0.45981900  1
  Fe3+  Fe2  1  0.00000000  0.53537900  0.50000000  1
  Fe3+  Fe3  1  0.53100650  0.74831150  0.27753300  1
  Fe3+  Fe4  1  0.00000000  0.95768700  0.00000000  1
  Fe3+  Fe5  1  0.96221550  0.74972050  0.21422600  1
  Fe3+  Fe6  1  0.03778450  0.74972050  0.78577400  1
  Fe3+  Fe7  1  0.96899350  0.24831150  0.72246700  1
  Fe3+  Fe8  1  0.50000000  0.53522300  0.50000000  1
  Fe3+  Fe9  1  0.75183100  0.99838100  0.54018100  1
  Fe3+  Fe10  1  0.74639250  0.49805350  0.95617800  1
  Fe3+  Fe11  1  0.75360750  0.99805350  0.04382200  1
  Fe3+  Fe12  1  0.24995800  0.74663400  0.74617900  1
  Fe3+  Fe13  1  0.75004200  0.74663400  0.25382100  1
  Fe3+  Fe14  1  0.74776650  0.24710650  0.24697300  1
  Fe3+  Fe15  1  0.75223350  0.74710650  0.75302700  1
  Fe3+  Fe16  1  0.50000000  0.96352700  0.00000000  1
  Fe3+  Fe17  1  0.24816900  0.99838100  0.45981900  1
  Fe3+  Fe18  1  0.50000000  0.03537900  0.50000000  1
  Fe3+  Fe19  1  0.03100650  0.24831150  0.27753300  1
  Fe3+  Fe20  1  0.50000000  0.45768700  0.00000000  1
  Fe3+  Fe21  1  0.46221550  0.24972050  0.21422600  1
  Fe3+  Fe22  1  0.53778450  0.24972050  0.78577400  1
  Fe3+  Fe23  1  0.46899350  0.74831150  0.72246700  1
  Fe3+  Fe24  1  0.00000000  0.03522300  0.50000000  1
  Fe3+  Fe25  1  0.25183100  0.49838100  0.54018100  1
  Fe3+  Fe26  1  0.24639250  0.99805350  0.95617800  1
  Fe3+  Fe27  1  0.25360750  0.49805350  0.04382200  1
  Fe3+  Fe28  1  0.74995800  0.24663400  0.74617900  1
  Fe3+  Fe29  1  0.25004200  0.24663400  0.25382100  1
  Fe3+  Fe30  1  0.24776650  0.74710650  0.24697300  1
  Fe3+  Fe31  1  0.25223350  0.24710650  0.75302700  1
  O2-  O32  1  0.65128250  0.89014750  0.28437300  1
  O2-  O33  1  0.60878700  0.61406800  0.19774500  1
  O2-  O34  1  0.61385900  0.65666800  0.75188300  1
  O2-  O35  1  0.88444350  0.61236250  0.97150800  1
  O2-  O36  1  0.87950250  0.65854750  0.51409000  1
  O2-  O37  1  0.12049750  0.65854750  0.48591000  1
  O2-  O38  1  0.61469500  0.33802100  0.25270200  1
  O2-  O39  1  0.38559800  0.88303000  0.47380500  1
  O2-  O40  1  0.11493050  0.34011350  0.97240400  1
  O2-  O41  1  0.89121300  0.11406800  0.80225500  1
  O2-  O42  1  0.15193800  0.88828500  0.01451200  1
  O2-  O43  1  0.34806200  0.38828500  0.98548800  1
  O2-  O44  1  0.61440200  0.88303000  0.52619500  1
  O2-  O45  1  0.65332550  0.60545950  0.51632900  1
  O2-  O46  1  0.88806250  0.88168350  0.29385100  1
  O2-  O47  1  0.38614100  0.65666800  0.24811700  1
  O2-  O48  1  0.61555650  0.11236250  0.02849200  1
  O2-  O49  1  0.11193750  0.88168350  0.70614900  1
  O2-  O50  1  0.84667450  0.10545950  0.48367100  1
  O2-  O51  1  0.15102200  0.60634800  0.78506600  1
  O2-  O52  1  0.38506950  0.84011350  0.02759600  1
  O2-  O53  1  0.84871750  0.39014750  0.71562700  1
  O2-  O54  1  0.34897800  0.10634800  0.21493400  1
  O2-  O55  1  0.88530500  0.83802100  0.74729800  1
  O2-  O56  1  0.15128250  0.39014750  0.28437300  1
  O2-  O57  1  0.10878700  0.11406800  0.19774500  1
  O2-  O58  1  0.11385900  0.15666800  0.75188300  1
  O2-  O59  1  0.38444350  0.11236250  0.97150800  1
  O2-  O60  1  0.37950250  0.15854750  0.51409000  1
  O2-  O61  1  0.62049750  0.15854750  0.48591000  1
  O2-  O62  1  0.11469500  0.83802100  0.25270200  1
  O2-  O63  1  0.88559800  0.38303000  0.47380500  1
  O2-  O64  1  0.61493050  0.84011350  0.97240400  1
  O2-  O65  1  0.39121300  0.61406800  0.80225500  1
  O2-  O66  1  0.65193800  0.38828500  0.01451200  1
  O2-  O67  1  0.84806200  0.88828500  0.98548800  1
  O2-  O68  1  0.11440200  0.38303000  0.52619500  1
  O2-  O69  1  0.15332550  0.10545950  0.51632900  1
  O2-  O70  1  0.38806250  0.38168350  0.29385100  1
  O2-  O71  1  0.88614100  0.15666800  0.24811700  1
  O2-  O72  1  0.11555650  0.61236250  0.02849200  1
  O2-  O73  1  0.61193750  0.38168350  0.70614900  1
  O2-  O74  1  0.34667450  0.60545950  0.48367100  1
  O2-  O75  1  0.65102200  0.10634800  0.78506600  1
  O2-  O76  1  0.88506950  0.34011350  0.02759600  1
  O2-  O77  1  0.34871750  0.89014750  0.71562700  1
  O2-  O78  1  0.84897800  0.60634800  0.21493400  1
  O2-  O79  1  0.38530500  0.33802100  0.74729800  1
