# generated using pymatgen
data_Fe3O4
_symmetry_space_group_name_H-M   'P 1'
_cell_length_a   6.10362292
_cell_length_b   6.01688600
_cell_length_c   8.52436649
_cell_angle_alpha   90.00000000
_cell_angle_beta   90.44150779
_cell_angle_gamma   90.00000000
_symmetry_Int_Tables_number   1
_chemical_formula_structural   Fe3O4
_chemical_formula_sum   'Fe12 O16'
_cell_volume   313.04638833
_cell_formula_units_Z   4
loop_
 _symmetry_equiv_pos_site_id
 _symmetry_equiv_pos_as_xyz
  1  'x, y, z'
loop_
 _atom_type_symbol
 _atom_type_oxidation_number
  Fe2+  2.0
  Fe3+  3.0
  O2-  -2.0
loop_
 _atom_site_type_symbol
 _atom_site_label
 _atom_site_symmetry_multiplicity
 _atom_site_fract_x
 _atom_site_fract_y
 _atom_site_fract_z
 _atom_site_occupancy
  Fe2+  Fe0  1  0.24998150  0.25298700  0.75149600  1
  Fe2+  Fe1  1  0.75001850  0.25298700  0.24850400  1
  Fe2+  Fe2  1  0.75001850  0.74701300  0.24850400  1
  Fe2+  Fe3  1  0.24998150  0.74701300  0.75149600  1
  Fe3+  Fe4  1  0.00000000  0.00000000  0.50000000  1
  Fe3+  Fe5  1  0.50000000  0.00000000  0.50000000  1
  Fe3+  Fe6  1  0.00000000  0.50000000  0.00000000  1
  Fe3+  Fe7  1  0.50000000  0.50000000  0.00000000  1
  Fe3+  Fe8  1  0.75465850  0.00000000  0.87264400  1
  Fe3+  Fe9  1  0.24534150  0.00000000  0.12735600  1
  Fe3+  Fe10  1  0.74489350  0.50000000  0.62426400  1
  Fe3+  Fe11  1  0.25510650  0.50000000  0.37573600  1
  O2-  O12  1  0.26173250  0.23993000  0.50665400  1
  O2-  O13  1  0.73826750  0.23993000  0.49334600  1
  O2-  O14  1  0.73826750  0.76007000  0.49334600  1
  O2-  O15  1  0.26173250  0.76007000  0.50665400  1
  O2-  O16  1  0.50824550  0.00000000  0.25753900  1
  O2-  O17  1  0.49175450  0.00000000  0.74246100  1
  O2-  O18  1  0.01171550  0.00000000  0.74606200  1
  O2-  O19  1  0.98828450  0.00000000  0.25393800  1
  O2-  O20  1  0.23911550  0.25806600  0.99170000  1
  O2-  O21  1  0.76088450  0.25806600  0.00830000  1
  O2-  O22  1  0.76088450  0.74193400  0.00830000  1
  O2-  O23  1  0.23911550  0.74193400  0.99170000  1
  O2-  O24  1  0.50806150  0.50000000  0.24383200  1
  O2-  O25  1  0.49193850  0.50000000  0.75616800  1
  O2-  O26  1  0.00410050  0.50000000  0.75955600  1
  O2-  O27  1  0.99589950  0.50000000  0.24044400  1
