# generated using pymatgen
data_Fe3O4
_symmetry_space_group_name_H-M   'P 1'
_cell_length_a   8.50338548
_cell_length_b   8.60298261
_cell_length_c   5.99279781
_cell_angle_alpha   90.00000000
_cell_angle_beta   134.31224146
_cell_angle_gamma   90.00000000
_symmetry_Int_Tables_number   1
_chemical_formula_structural   Fe3O4
_chemical_formula_sum   'Fe12 O16'
_cell_volume   313.69426378
_cell_formula_units_Z   4
loop_
 _symmetry_equiv_pos_site_id
 _symmetry_equiv_pos_as_xyz
  1  'x, y, z'
loop_
 _atom_type_symbol
 _atom_type_oxidation_number
  Fe2+  2.0
  Fe3+  3.0
  O2-  -2.0
loop_
 _atom_site_type_symbol
 _atom_site_label
 _atom_site_symmetry_multiplicity
 _atom_site_fract_x
 _atom_site_fract_y
 _atom_site_fract_z
 _atom_site_occupancy
  Fe2+  Fe0  1  0.49887650  0.99898150  0.50176000  1
  Fe2+  Fe1  1  0.49887650  0.00101850  0.00176000  1
  Fe2+  Fe2  1  0.99887650  0.49898150  0.50176000  1
  Fe2+  Fe3  1  0.99887650  0.50101850  0.00176000  1
  Fe3+  Fe4  1  0.49946500  0.38149700  0.75033300  1
  Fe3+  Fe5  1  0.24602950  0.25091650  0.99709300  1
  Fe3+  Fe6  1  0.99946500  0.11850300  0.25033300  1
  Fe3+  Fe7  1  0.74602950  0.24908350  0.49709300  1
  Fe3+  Fe8  1  0.99946500  0.88149700  0.75033300  1
  Fe3+  Fe9  1  0.74602950  0.75091650  0.99709300  1
  Fe3+  Fe10  1  0.49946500  0.61850300  0.25033300  1
  Fe3+  Fe11  1  0.24602950  0.74908350  0.49709300  1
  O2-  O12  1  0.50056350  0.25220950  0.48304900  1
  O2-  O13  1  0.00056350  0.24779050  0.98304900  1
  O2-  O14  1  0.25573650  0.98749150  0.49947900  1
  O2-  O15  1  0.50424650  0.25163450  0.01900400  1
  O2-  O16  1  0.24698550  0.48644150  0.00017900  1
  O2-  O17  1  0.24698550  0.51355850  0.50017900  1
  O2-  O18  1  0.00424650  0.24836550  0.51900400  1
  O2-  O19  1  0.25573650  0.01250850  0.99947900  1
  O2-  O20  1  0.00056350  0.75220950  0.48304900  1
  O2-  O21  1  0.50056350  0.74779050  0.98304900  1
  O2-  O22  1  0.75573650  0.48749150  0.49947900  1
  O2-  O23  1  0.00424650  0.75163450  0.01900400  1
  O2-  O24  1  0.74698550  0.98644150  0.00017900  1
  O2-  O25  1  0.74698550  0.01355850  0.50017900  1
  O2-  O26  1  0.50424650  0.74836550  0.51900400  1
  O2-  O27  1  0.75573650  0.51250850  0.99947900  1
