# generated using pymatgen
data_Fe3O4
_symmetry_space_group_name_H-M   'P 1'
_cell_length_a   6.04221872
_cell_length_b   6.07178986
_cell_length_c   10.49942137
_cell_angle_alpha   90.33267827
_cell_angle_beta   106.70679643
_cell_angle_gamma   119.63179369
_symmetry_Int_Tables_number   1
_chemical_formula_structural   Fe3O4
_chemical_formula_sum   'Fe12 O16'
_cell_volume   315.58086296
_cell_formula_units_Z   4
loop_
 _symmetry_equiv_pos_site_id
 _symmetry_equiv_pos_as_xyz
  1  'x, y, z'
loop_
 _atom_type_symbol
 _atom_type_oxidation_number
  Fe2+  2.0
  Fe3+  3.0
  O2-  -2.0
loop_
 _atom_site_type_symbol
 _atom_site_label
 _atom_site_symmetry_multiplicity
 _atom_site_fract_x
 _atom_site_fract_y
 _atom_site_fract_z
 _atom_site_occupancy
  Fe2+  Fe0  1  0.50450400  0.50222400  0.50318000  1
  Fe2+  Fe1  1  0.00179100  0.75074100  0.75070700  1
  Fe2+  Fe2  1  0.49685900  0.99755600  0.99797200  1
  Fe2+  Fe3  1  0.49984600  0.24907200  0.24954300  1
  Fe3+  Fe4  1  0.99885500  0.24918800  0.24919400  1
  Fe3+  Fe5  1  0.50049900  0.75027400  0.75080900  1
  Fe3+  Fe6  1  0.49969900  0.24738100  0.75317500  1
  Fe3+  Fe7  1  0.49952100  0.75204400  0.24791600  1
  Fe3+  Fe8  1  0.12501800  0.31940900  0.93702100  1
  Fe3+  Fe9  1  0.12530100  0.81909700  0.43716000  1
  Fe3+  Fe10  1  0.87550900  0.18240200  0.56263300  1
  Fe3+  Fe11  1  0.87328800  0.67955000  0.06254600  1
  O2-  O12  1  0.25421600  0.63626900  0.87410400  1
  O2-  O13  1  0.25243000  0.14598800  0.37402900  1
  O2-  O14  1  0.73755000  0.85589700  0.61845700  1
  O2-  O15  1  0.75681500  0.36250400  0.13316300  1
  O2-  O16  1  0.73408800  0.61147800  0.86899600  1
  O2-  O17  1  0.75348000  0.11543600  0.36564000  1
  O2-  O18  1  0.25947800  0.13222200  0.86846100  1
  O2-  O19  1  0.25567000  0.61245700  0.37229400  1
  O2-  O20  1  0.72768300  0.37163500  0.62042300  1
  O2-  O21  1  0.75770000  0.88443100  0.13818500  1
  O2-  O22  1  0.73837700  0.12958300  0.86760300  1
  O2-  O23  1  0.73090400  0.62581800  0.37679100  1
  O2-  O24  1  0.26464700  0.88750400  0.62889800  1
  O2-  O25  1  0.24859400  0.38565300  0.13623500  1
  O2-  O26  1  0.26576200  0.37459600  0.62161800  1
  O2-  O27  1  0.26191600  0.86959200  0.13324600  1
