# generated using pymatgen
data_Fe3O4
_symmetry_space_group_name_H-M   'P 1'
_cell_length_a   6.06335300
_cell_length_b   6.06571000
_cell_length_c   8.68538431
_cell_angle_alpha   90.00000000
_cell_angle_beta   90.20995696
_cell_angle_gamma   90.00000000
_symmetry_Int_Tables_number   1
_chemical_formula_structural   Fe3O4
_chemical_formula_sum   'Fe12 O16'
_cell_volume   319.43361774
_cell_formula_units_Z   4
loop_
 _symmetry_equiv_pos_site_id
 _symmetry_equiv_pos_as_xyz
  1  'x, y, z'
loop_
 _atom_type_symbol
 _atom_type_oxidation_number
  Fe2+  2.0
  Fe3+  3.0
  O2-  -2.0
loop_
 _atom_site_type_symbol
 _atom_site_label
 _atom_site_symmetry_multiplicity
 _atom_site_fract_x
 _atom_site_fract_y
 _atom_site_fract_z
 _atom_site_occupancy
  Fe2+  Fe0  1  0.50000000  0.00000000  0.50000000  1
  Fe2+  Fe1  1  0.50000000  0.50000000  0.00000000  1
  Fe2+  Fe2  1  0.75193100  0.00000000  0.12153200  1
  Fe2+  Fe3  1  0.24806900  0.00000000  0.87846800  1
  Fe3+  Fe4  1  0.00000000  0.00000000  0.50000000  1
  Fe3+  Fe5  1  0.00000000  0.50000000  0.00000000  1
  Fe3+  Fe6  1  0.75304000  0.50000000  0.37752500  1
  Fe3+  Fe7  1  0.24696000  0.50000000  0.62247500  1
  Fe3+  Fe8  1  0.25262800  0.24795500  0.25059100  1
  Fe3+  Fe9  1  0.74737200  0.24795500  0.74940900  1
  Fe3+  Fe10  1  0.25262800  0.75204500  0.25059100  1
  Fe3+  Fe11  1  0.74737200  0.75204500  0.74940900  1
  O2-  O12  1  0.97611000  0.00000000  0.73182000  1
  O2-  O13  1  0.47682600  0.00000000  0.25876900  1
  O2-  O14  1  0.52317400  0.00000000  0.74123100  1
  O2-  O15  1  0.02389000  0.00000000  0.26818000  1
  O2-  O16  1  0.76097500  0.75763100  0.50707400  1
  O2-  O17  1  0.23902500  0.75763100  0.49292600  1
  O2-  O18  1  0.23902500  0.24236900  0.49292600  1
  O2-  O19  1  0.76097500  0.24236900  0.50707400  1
  O2-  O20  1  0.24072100  0.73214700  0.02112700  1
  O2-  O21  1  0.75927900  0.73214700  0.97887300  1
  O2-  O22  1  0.75927900  0.26785300  0.97887300  1
  O2-  O23  1  0.24072100  0.26785300  0.02112700  1
  O2-  O24  1  0.51689300  0.50000000  0.74193900  1
  O2-  O25  1  0.01187000  0.50000000  0.24286400  1
  O2-  O26  1  0.48310700  0.50000000  0.25806100  1
  O2-  O27  1  0.98813000  0.50000000  0.75713600  1
