# generated using pymatgen
data_Fe3O4
_symmetry_space_group_name_H-M   'P 1'
_cell_length_a   6.09147720
_cell_length_b   6.09223026
_cell_length_c   16.97859899
_cell_angle_alpha   89.84056887
_cell_angle_beta   89.90918134
_cell_angle_gamma   89.79656251
_symmetry_Int_Tables_number   1
_chemical_formula_structural   Fe3O4
_chemical_formula_sum   'Fe24 O32'
_cell_volume   630.08019051
_cell_formula_units_Z   8
loop_
 _symmetry_equiv_pos_site_id
 _symmetry_equiv_pos_as_xyz
  1  'x, y, z'
loop_
 _atom_type_symbol
 _atom_type_oxidation_number
  Fe2+  2.0
  Fe3+  3.0
  O2-  -2.0
loop_
 _atom_site_type_symbol
 _atom_site_label
 _atom_site_symmetry_multiplicity
 _atom_site_fract_x
 _atom_site_fract_y
 _atom_site_fract_z
 _atom_site_occupancy
  Fe2+  Fe0  1  0.25105700  0.99741200  0.75721800  1
  Fe2+  Fe1  1  0.00089500  0.74832700  0.87708900  1
  Fe2+  Fe2  1  0.99894400  0.99814500  0.56923300  1
  Fe2+  Fe3  1  0.00330700  0.50155300  0.19083300  1
  Fe2+  Fe4  1  0.49691400  0.50118300  0.31405200  1
  Fe2+  Fe5  1  0.49934700  0.00015200  0.44416400  1
  Fe2+  Fe6  1  0.74899000  0.99845500  0.75681200  1
  Fe2+  Fe7  1  0.00254300  0.99501800  0.07099700  1
  Fe3+  Fe8  1  0.24736700  0.50023200  0.50338300  1
  Fe3+  Fe9  1  0.24738600  0.50484700  0.00456800  1
  Fe3+  Fe10  1  0.99968600  0.49818400  0.69365200  1
  Fe3+  Fe11  1  0.50649100  0.25178600  0.13171500  1
  Fe3+  Fe12  1  0.24290100  0.99553500  0.25274500  1
  Fe3+  Fe13  1  0.99526000  0.75558200  0.37665800  1
  Fe3+  Fe14  1  0.00026800  0.24706400  0.88120500  1
  Fe3+  Fe15  1  0.99569800  0.24420600  0.37583800  1
  Fe3+  Fe16  1  0.49988700  0.49369500  0.81738700  1
  Fe3+  Fe17  1  0.49754900  0.24482500  0.63034500  1
  Fe3+  Fe18  1  0.75051500  0.49822100  0.50400300  1
  Fe3+  Fe19  1  0.75417500  0.50606700  0.00492900  1
  Fe3+  Fe20  1  0.50163500  0.00644900  0.94481500  1
  Fe3+  Fe21  1  0.50257400  0.75156100  0.12942200  1
  Fe3+  Fe22  1  0.74687500  0.99892500  0.25395100  1
  Fe3+  Fe23  1  0.49885400  0.75244700  0.63135400  1
  O2-  O24  1  0.75814100  0.49088700  0.88477800  1
  O2-  O25  1  0.50342700  0.27240200  0.00996600  1
  O2-  O26  1  0.99952300  0.27454200  0.49638100  1
  O2-  O27  1  0.73577700  0.49714800  0.62504100  1
  O2-  O28  1  0.23375100  0.49991200  0.38002100  1
  O2-  O29  1  0.49745400  0.24583200  0.74878300  1
  O2-  O30  1  0.71424700  0.99097500  0.13185700  1
  O2-  O31  1  0.99975900  0.72236200  0.00115500  1
  O2-  O32  1  0.00465700  0.77070700  0.25819700  1
  O2-  O33  1  0.00258900  0.75217200  0.75618900  1
  O2-  O34  1  0.24267400  0.01614700  0.88309800  1
  O2-  O35  1  0.49791100  0.27939700  0.50923500  1
  O2-  O36  1  0.26322600  0.49878100  0.62482400  1
  O2-  O37  1  0.00263300  0.27824000  0.00134400  1
  O2-  O38  1  0.49598500  0.24048600  0.25101100  1
  O2-  O39  1  0.28282000  0.51020600  0.12388900  1
  O2-  O40  1  0.24637300  0.49206200  0.88588900  1
  O2-  O41  1  0.77462900  0.99949300  0.37542200  1
  O2-  O42  1  0.50039800  0.71944200  0.50963900  1
  O2-  O43  1  0.00067100  0.24881200  0.76180200  1
  O2-  O44  1  0.22495300  0.00032500  0.37326400  1
  O2-  O45  1  0.72401500  0.50535700  0.12432300  1
  O2-  O46  1  0.50007300  0.74705200  0.75032500  1
  O2-  O47  1  0.99850200  0.72329400  0.49683500  1
  O2-  O48  1  0.76233000  0.50002600  0.37952500  1
  O2-  O49  1  0.50302900  0.73734600  0.01008100  1
  O2-  O50  1  0.28304100  0.99741600  0.13474100  1
  O2-  O51  1  0.49470500  0.76005600  0.24806600  1
  O2-  O52  1  0.71973300  0.99896600  0.63026100  1
  O2-  O53  1  0.00509900  0.22771700  0.25664800  1
  O2-  O54  1  0.27713900  0.99826500  0.62922900  1
  O2-  O55  1  0.76161800  0.01430200  0.88180900  1
