# generated using pymatgen
data_Fe3O4
_symmetry_space_group_name_H-M   'P 1'
_cell_length_a   9.79544800
_cell_length_b   2.95581600
_cell_length_c   10.00548318
_cell_angle_alpha   90.00000000
_cell_angle_beta   90.28720356
_cell_angle_gamma   90.00000000
_symmetry_Int_Tables_number   1
_chemical_formula_structural   Fe3O4
_chemical_formula_sum   'Fe12 O16'
_cell_volume   289.69053751
_cell_formula_units_Z   4
loop_
 _symmetry_equiv_pos_site_id
 _symmetry_equiv_pos_as_xyz
  1  'x, y, z'
loop_
 _atom_type_symbol
 _atom_type_oxidation_number
  Fe2+  2.0
  Fe3+  3.0
  O2-  -2.0
loop_
 _atom_site_type_symbol
 _atom_site_label
 _atom_site_symmetry_multiplicity
 _atom_site_fract_x
 _atom_site_fract_y
 _atom_site_fract_z
 _atom_site_occupancy
  Fe2+  Fe0  1  0.86206700  0.32510900  0.24800600  1
  Fe2+  Fe1  1  0.63442200  0.27903800  0.75180000  1
  Fe2+  Fe2  1  0.13442200  0.72096200  0.75180000  1
  Fe2+  Fe3  1  0.36206700  0.67489100  0.24800600  1
  Fe3+  Fe4  1  0.11853700  0.22881500  0.42644600  1
  Fe3+  Fe5  1  0.61853700  0.77118500  0.42644600  1
  Fe3+  Fe6  1  0.61781100  0.78982900  0.07503300  1
  Fe3+  Fe7  1  0.88339700  0.75525600  0.57496700  1
  Fe3+  Fe8  1  0.88240500  0.74521500  0.92350200  1
  Fe3+  Fe9  1  0.38339700  0.24474400  0.57496700  1
  Fe3+  Fe10  1  0.11781100  0.21017100  0.07503300  1
  Fe3+  Fe11  1  0.38240500  0.25478500  0.92350200  1
  O2-  O12  1  0.52211800  0.75290400  0.61410800  1
  O2-  O13  1  0.97900600  0.71251700  0.11234100  1
  O2-  O14  1  0.52116100  0.76616100  0.88677800  1
  O2-  O15  1  0.02211800  0.24709600  0.61410800  1
  O2-  O16  1  0.47900600  0.28748300  0.11234100  1
  O2-  O17  1  0.02116100  0.23383900  0.88677800  1
  O2-  O18  1  0.48107800  0.26692100  0.39094100  1
  O2-  O19  1  0.98107800  0.73307900  0.39094100  1
  O2-  O20  1  0.78919000  0.77483700  0.74913200  1
  O2-  O21  1  0.20877400  0.17976500  0.24971300  1
  O2-  O22  1  0.70877400  0.82023500  0.24971300  1
  O2-  O23  1  0.28919000  0.22516300  0.74913200  1
  O2-  O24  1  0.24870600  0.72836900  0.99799900  1
  O2-  O25  1  0.75132900  0.26940500  0.49923500  1
  O2-  O26  1  0.25132900  0.73059500  0.49923500  1
  O2-  O27  1  0.74870600  0.27163100  0.99799900  1
