# generated using pymatgen
data_Fe41O56
_symmetry_space_group_name_H-M   'P 1'
_cell_length_a   15.94138998
_cell_length_b   15.94138998
_cell_length_c   14.76924726
_cell_angle_alpha   90.00000000
_cell_angle_beta   90.00000000
_cell_angle_gamma   120.00000000
_symmetry_Int_Tables_number   1
_chemical_formula_structural   Fe41O56
_chemical_formula_sum   'Fe123 O168'
_cell_volume   3250.43409787
_cell_formula_units_Z   3
loop_
 _symmetry_equiv_pos_site_id
 _symmetry_equiv_pos_as_xyz
  1  'x, y, z'
loop_
 _atom_type_symbol
 _atom_type_oxidation_number
  Fe2+  2.0
  Fe3+  3.0
  O2-  -2.0
loop_
 _atom_site_type_symbol
 _atom_site_label
 _atom_site_symmetry_multiplicity
 _atom_site_fract_x
 _atom_site_fract_y
 _atom_site_fract_z
 _atom_site_occupancy
  Fe2+  Fe0  1  0.18677067  0.95339133  0.61239733  1
  Fe2+  Fe1  1  0.76662067  0.81322933  0.61239733  1
  Fe2+  Fe2  1  0.04721400  0.73992600  0.73785300  1
  Fe2+  Fe3  1  0.26007400  0.30728800  0.73785300  1
  Fe2+  Fe4  1  0.69271200  0.95278600  0.73785300  1
  Fe2+  Fe5  1  0.88201733  0.90572067  0.40504567  1
  Fe2+  Fe6  1  0.00000000  0.00000000  0.57082700  1
  Fe2+  Fe7  1  0.04660867  0.23337933  0.61239733  1
  Fe2+  Fe8  1  0.02370333  0.11798267  0.40504567  1
  Fe2+  Fe9  1  0.09427933  0.97629667  0.40504567  1
  Fe2+  Fe10  1  0.00000000  0.00000000  0.19523200  1
  Fe2+  Fe11  1  0.85343733  0.28672467  0.94573067  1
  Fe2+  Fe12  1  0.43328733  0.14656267  0.94573067  1
  Fe2+  Fe13  1  0.71388067  0.07325933  0.07118633  1
  Fe2+  Fe14  1  0.92674067  0.64062133  0.07118633  1
  Fe2+  Fe15  1  0.35937867  0.28611933  0.07118633  1
  Fe2+  Fe16  1  0.54868400  0.23905400  0.73837900  1
  Fe2+  Fe17  1  0.66666667  0.33333333  0.90416033  1
  Fe2+  Fe18  1  0.71327533  0.56671267  0.94573067  1
  Fe2+  Fe19  1  0.69037000  0.45131600  0.73837900  1
  Fe2+  Fe20  1  0.76094600  0.30963000  0.73837900  1
  Fe2+  Fe21  1  0.66666667  0.33333333  0.52856533  1
  Fe2+  Fe22  1  0.52010400  0.62005800  0.27906400  1
  Fe2+  Fe23  1  0.09995400  0.47989600  0.27906400  1
  Fe2+  Fe24  1  0.38054733  0.40659267  0.40451967  1
  Fe2+  Fe25  1  0.59340733  0.97395467  0.40451967  1
  Fe2+  Fe26  1  0.02604533  0.61945267  0.40451967  1
  Fe2+  Fe27  1  0.21535067  0.57238733  0.07171233  1
  Fe2+  Fe28  1  0.33333333  0.66666667  0.23749367  1
  Fe2+  Fe29  1  0.37994200  0.90004600  0.27906400  1
  Fe2+  Fe30  1  0.35703667  0.78464933  0.07171233  1
  Fe2+  Fe31  1  0.42761267  0.64296333  0.07171233  1
  Fe2+  Fe32  1  0.33333333  0.66666667  0.86189867  1
  Fe3+  Fe33  1  0.51935433  0.61852767  0.52901567  1
  Fe3+  Fe34  1  0.56968700  0.85467900  0.57230700  1
  Fe3+  Fe35  1  0.11401800  0.09031900  0.73638700  1
  Fe3+  Fe36  1  0.04750500  0.23782000  0.23884400  1
  Fe3+  Fe37  1  0.25904667  0.80844633  0.73600733  1
  Fe3+  Fe38  1  0.54939967  0.74095333  0.73600733  1
  Fe3+  Fe39  1  0.73940600  0.69305200  0.40463100  1
  Fe3+  Fe40  1  0.81161300  0.54713000  0.40363800  1
  Fe3+  Fe41  1  0.90968100  0.02369900  0.73638700  1
  Fe3+  Fe42  1  0.97630100  0.88598200  0.73638700  1
  Fe3+  Fe43  1  0.66588500  0.83139300  0.40525700  1
  Fe3+  Fe44  1  0.38147233  0.90082667  0.52901567  1
  Fe3+  Fe45  1  0.81120833  0.04583867  0.53126567  1
  Fe3+  Fe46  1  0.95416133  0.76536967  0.53126567  1
  Fe3+  Fe47  1  0.14532100  0.71500800  0.57230700  1
  Fe3+  Fe48  1  0.73551700  0.18838700  0.40363800  1
  Fe3+  Fe49  1  0.28499200  0.43031300  0.57230700  1
  Fe3+  Fe50  1  0.76218000  0.80968500  0.23884400  1
  Fe3+  Fe51  1  0.95353233  0.76399367  0.28136767  1
  Fe3+  Fe52  1  0.81046133  0.04646767  0.28136767  1
  Fe3+  Fe53  1  0.45287000  0.26448300  0.40363800  1
  Fe3+  Fe54  1  0.95364600  0.26059400  0.40463100  1
  Fe3+  Fe55  1  0.19155367  0.45060033  0.73600733  1
  Fe3+  Fe56  1  0.16860700  0.83449200  0.40525700  1
  Fe3+  Fe57  1  0.09917333  0.48064567  0.52901567  1
  Fe3+  Fe58  1  0.23463033  0.18879167  0.53126567  1
  Fe3+  Fe59  1  0.16550800  0.33411500  0.40525700  1
  Fe3+  Fe60  1  0.30694800  0.04635400  0.40463100  1
  Fe3+  Fe61  1  0.19031500  0.95249500  0.23884400  1
  Fe3+  Fe62  1  0.23600633  0.18953867  0.28136767  1
  Fe3+  Fe63  1  0.18602100  0.95186100  0.86234900  1
  Fe3+  Fe64  1  0.23635367  0.18801233  0.90564033  1
  Fe3+  Fe65  1  0.78068467  0.42365233  0.06972033  1
  Fe3+  Fe66  1  0.71417167  0.57115333  0.57217733  1
  Fe3+  Fe67  1  0.92571333  0.14177967  0.06934067  1
  Fe3+  Fe68  1  0.21606633  0.07428667  0.06934067  1
  Fe3+  Fe69  1  0.40607267  0.02638533  0.73796433  1
  Fe3+  Fe70  1  0.47827967  0.88046333  0.73697133  1
  Fe3+  Fe71  1  0.57634767  0.35703233  0.06972033  1
  Fe3+  Fe72  1  0.64296767  0.21931533  0.06972033  1
  Fe3+  Fe73  1  0.33255167  0.16472633  0.73859033  1
  Fe3+  Fe74  1  0.04813900  0.23416000  0.86234900  1
  Fe3+  Fe75  1  0.47787500  0.37917200  0.86459900  1
  Fe3+  Fe76  1  0.62082800  0.09870300  0.86459900  1
  Fe3+  Fe77  1  0.81198767  0.04834133  0.90564033  1
  Fe3+  Fe78  1  0.40218367  0.52172033  0.73697133  1
  Fe3+  Fe79  1  0.95165867  0.76364633  0.90564033  1
  Fe3+  Fe80  1  0.42884667  0.14301833  0.57217733  1
  Fe3+  Fe81  1  0.62019900  0.09732700  0.61470100  1
  Fe3+  Fe82  1  0.47712800  0.37980100  0.61470100  1
  Fe3+  Fe83  1  0.11953667  0.59781633  0.73697133  1
  Fe3+  Fe84  1  0.62031267  0.59392733  0.73796433  1
  Fe3+  Fe85  1  0.85822033  0.78393367  0.06934067  1
  Fe3+  Fe86  1  0.83527367  0.16782533  0.73859033  1
  Fe3+  Fe87  1  0.76584000  0.81397900  0.86234900  1
  Fe3+  Fe88  1  0.90129700  0.52212500  0.86459900  1
  Fe3+  Fe89  1  0.83217467  0.66744833  0.73859033  1
  Fe3+  Fe90  1  0.97361467  0.37968733  0.73796433  1
  Fe3+  Fe91  1  0.85698167  0.28582833  0.57217733  1
  Fe3+  Fe92  1  0.90267300  0.52287200  0.61470100  1
  Fe3+  Fe93  1  0.85268767  0.28519433  0.19568233  1
  Fe3+  Fe94  1  0.90302033  0.52134567  0.23897367  1
  Fe3+  Fe95  1  0.44735133  0.75698567  0.40305367  1
  Fe3+  Fe96  1  0.38083833  0.90448667  0.90551067  1
  Fe3+  Fe97  1  0.59238000  0.47511300  0.40267400  1
  Fe3+  Fe98  1  0.88273300  0.40762000  0.40267400  1
  Fe3+  Fe99  1  0.07273933  0.35971867  0.07129767  1
  Fe3+  Fe100  1  0.14494633  0.21379667  0.07030467  1
  Fe3+  Fe101  1  0.24301433  0.69036567  0.40305367  1
  Fe3+  Fe102  1  0.30963433  0.55264867  0.40305367  1
  Fe3+  Fe103  1  0.99921833  0.49805967  0.07192367  1
  Fe3+  Fe104  1  0.71480567  0.56749333  0.19568233  1
  Fe3+  Fe105  1  0.14454167  0.71250533  0.19793233  1
  Fe3+  Fe106  1  0.28749467  0.43203633  0.19793233  1
  Fe3+  Fe107  1  0.47865433  0.38167467  0.23897367  1
  Fe3+  Fe108  1  0.06885033  0.85505367  0.07030467  1
  Fe3+  Fe109  1  0.61832533  0.09697967  0.23897367  1
  Fe3+  Fe110  1  0.09551333  0.47635167  0.90551067  1
  Fe3+  Fe111  1  0.28686567  0.43066033  0.94803433  1
  Fe3+  Fe112  1  0.14379467  0.71313433  0.94803433  1
  Fe3+  Fe113  1  0.78620333  0.93114967  0.07030467  1
  Fe3+  Fe114  1  0.28697933  0.92726067  0.07129767  1
  Fe3+  Fe115  1  0.52488700  0.11726700  0.40267400  1
  Fe3+  Fe116  1  0.50194033  0.50115867  0.07192367  1
  Fe3+  Fe117  1  0.43250667  0.14731233  0.19568233  1
  Fe3+  Fe118  1  0.56796367  0.85545833  0.19793233  1
  Fe3+  Fe119  1  0.49884133  0.00078167  0.07192367  1
  Fe3+  Fe120  1  0.64028133  0.71302067  0.07129767  1
  Fe3+  Fe121  1  0.52364833  0.61916167  0.90551067  1
  Fe3+  Fe122  1  0.56933967  0.85620533  0.94803433  1
  O2-  O123  1  0.06081933  0.85671867  0.82124767  1
  O2-  O124  1  0.00000000  0.00000000  0.79899600  1
  O2-  O125  1  0.73573533  0.67958367  0.65680367  1
  O2-  O126  1  0.65867633  0.83303767  0.65597867  1
  O2-  O127  1  0.22095233  0.69253867  0.66335367  1
  O2-  O128  1  0.16696233  0.82563867  0.65597867  1
  O2-  O129  1  0.54508833  0.74322567  0.48414967  1
  O2-  O130  1  0.62116600  0.59189600  0.48526600  1
  O2-  O131  1  0.14328133  0.20410067  0.82124767  1
  O2-  O132  1  0.68407967  0.94329033  0.48983833  1
  O2-  O133  1  0.71364933  0.57028867  0.32883867  1
  O2-  O134  1  0.23325767  0.18113433  0.66277033  1
  O2-  O135  1  0.82628567  0.66051933  0.48539633  1
  O2-  O136  1  0.94787667  0.76674233  0.66277033  1
  O2-  O137  1  0.81886567  0.05212333  0.66277033  1
  O2-  O138  1  0.17436133  0.34132367  0.65597867  1
  O2-  O139  1  0.90222333  0.52172767  0.48546367  1
  O2-  O140  1  0.75727000  0.80595200  0.47711300  1
  O2-  O141  1  0.32041633  0.05615167  0.65680367  1
  O2-  O142  1  0.47158633  0.77904767  0.66335367  1
  O2-  O143  1  0.89117100  0.91389500  0.66283800  1
  O2-  O144  1  0.85112733  0.78635567  0.32177167  1
  O2-  O145  1  0.71325733  0.07424167  0.32100167  1
  O2-  O146  1  0.02272400  0.10882900  0.66283800  1
  O2-  O147  1  0.92575833  0.63901567  0.32100167  1
  O2-  O148  1  0.30746133  0.52841367  0.66335367  1
  O2-  O149  1  0.78105133  0.91992067  0.32264767  1
  O2-  O150  1  0.08610500  0.97727600  0.66283800  1
  O2-  O151  1  0.83423367  0.17371433  0.48539633  1
  O2-  O152  1  0.40810400  0.02927000  0.48526600  1
  O2-  O153  1  0.33948067  0.16576633  0.48539633  1
  O2-  O154  1  0.90742067  0.02283433  0.48565533  1
  O2-  O155  1  0.97716567  0.88458633  0.48565533  1
  O2-  O156  1  0.05670967  0.74078933  0.48983833  1
  O2-  O157  1  0.79589933  0.93918067  0.82124767  1
  O2-  O158  1  0.87272000  0.89754500  0.15124500  1
  O2-  O159  1  0.00000000  0.00000000  0.32233800  1
  O2-  O160  1  0.11541367  0.09257933  0.48565533  1
  O2-  O161  1  0.97073000  0.37883400  0.48526600  1
  O2-  O162  1  0.85663933  0.28635067  0.32883867  1
  O2-  O163  1  0.25677433  0.80186267  0.48414967  1
  O2-  O164  1  0.93522833  0.14887267  0.32177167  1
  O2-  O165  1  0.61950433  0.09777667  0.48546367  1
  O2-  O166  1  0.19404800  0.95131800  0.47711300  1
  O2-  O167  1  0.47827233  0.38049567  0.48546367  1
  O2-  O168  1  0.04868200  0.24273000  0.47711300  1
  O2-  O169  1  0.08007933  0.86113067  0.32264767  1
  O2-  O170  1  0.13886933  0.21894867  0.32264767  1
  O2-  O171  1  0.94384833  0.26426467  0.65680367  1
  O2-  O172  1  0.21364433  0.06477167  0.32177167  1
  O2-  O173  1  0.02482500  0.12728000  0.15124500  1
  O2-  O174  1  0.10245500  0.97517500  0.15124500  1
  O2-  O175  1  0.25921067  0.31592033  0.48983833  1
  O2-  O176  1  0.19813733  0.45491167  0.48414967  1
  O2-  O177  1  0.42971133  0.14336067  0.32883867  1
  O2-  O178  1  0.36098433  0.28674267  0.32100167  1
  O2-  O179  1  0.72748600  0.19005200  0.15458100  1
  O2-  O180  1  0.66666667  0.33333333  0.13232933  1
  O2-  O181  1  0.40240200  0.01291700  0.99013700  1
  O2-  O182  1  0.32534300  0.16637100  0.98931200  1
  O2-  O183  1  0.88761900  0.02587200  0.99668700  1
  O2-  O184  1  0.83362900  0.15897200  0.98931200  1
  O2-  O185  1  0.21175500  0.07655900  0.81748300  1
  O2-  O186  1  0.28783267  0.92522933  0.81859933  1
  O2-  O187  1  0.80994800  0.53743400  0.15458100  1
  O2-  O188  1  0.35074633  0.27662367  0.82317167  1
  O2-  O189  1  0.38031600  0.90362200  0.66217200  1
  O2-  O190  1  0.89992433  0.51446767  0.99610367  1
  O2-  O191  1  0.49295233  0.99385267  0.81872967  1
  O2-  O192  1  0.61454333  0.10007567  0.99610367  1
  O2-  O193  1  0.48553233  0.38545667  0.99610367  1
  O2-  O194  1  0.84102800  0.67465700  0.98931200  1
  O2-  O195  1  0.56889000  0.85506100  0.81879700  1
  O2-  O196  1  0.42393667  0.13928533  0.81044633  1
  O2-  O197  1  0.98708300  0.38948500  0.99013700  1
  O2-  O198  1  0.13825300  0.11238100  0.99668700  1
  O2-  O199  1  0.55783767  0.24722833  0.99617133  1
  O2-  O200  1  0.51779400  0.11968900  0.65510500  1
  O2-  O201  1  0.37992400  0.40757500  0.65433500  1
  O2-  O202  1  0.68939067  0.44216233  0.99617133  1
  O2-  O203  1  0.59242500  0.97234900  0.65433500  1
  O2-  O204  1  0.97412800  0.86174700  0.99668700  1
  O2-  O205  1  0.44771800  0.25325400  0.65598100  1
  O2-  O206  1  0.75277167  0.31060933  0.99617133  1
  O2-  O207  1  0.50090033  0.50704767  0.81872967  1
  O2-  O208  1  0.07477067  0.36260333  0.81859933  1
  O2-  O209  1  0.00614733  0.49909967  0.81872967  1
  O2-  O210  1  0.57408733  0.35616767  0.81898867  1
  O2-  O211  1  0.64383233  0.21791967  0.81898867  1
  O2-  O212  1  0.72337633  0.07412267  0.82317167  1
  O2-  O213  1  0.46256600  0.27251400  0.15458100  1
  O2-  O214  1  0.53938667  0.23087833  0.48457833  1
  O2-  O215  1  0.66666667  0.33333333  0.65567133  1
  O2-  O216  1  0.78208033  0.42591267  0.81898867  1
  O2-  O217  1  0.63739667  0.71216733  0.81859933  1
  O2-  O218  1  0.52330600  0.61968400  0.66217200  1
  O2-  O219  1  0.92344100  0.13519600  0.81748300  1
  O2-  O220  1  0.60189500  0.48220600  0.65510500  1
  O2-  O221  1  0.28617100  0.43111000  0.81879700  1
  O2-  O222  1  0.86071467  0.28465133  0.81044633  1
  O2-  O223  1  0.14493900  0.71382900  0.81879700  1
  O2-  O224  1  0.71534867  0.57606333  0.81044633  1
  O2-  O225  1  0.74674600  0.19446400  0.65598100  1
  O2-  O226  1  0.80553600  0.55228200  0.65598100  1
  O2-  O227  1  0.61051500  0.59759800  0.99013700  1
  O2-  O228  1  0.88031100  0.39810500  0.65510500  1
  O2-  O229  1  0.69149167  0.46061333  0.48457833  1
  O2-  O230  1  0.76912167  0.30850833  0.48457833  1
  O2-  O231  1  0.92587733  0.64925367  0.82317167  1
  O2-  O232  1  0.86480400  0.78824500  0.81748300  1
  O2-  O233  1  0.09637800  0.47669400  0.66217200  1
  O2-  O234  1  0.02765100  0.62007600  0.65433500  1
  O2-  O235  1  0.39415267  0.52338533  0.48791433  1
  O2-  O236  1  0.33333333  0.66666667  0.46566267  1
  O2-  O237  1  0.06906867  0.34625033  0.32347033  1
  O2-  O238  1  0.99200967  0.49970433  0.32264533  1
  O2-  O239  1  0.55428567  0.35920533  0.33002033  1
  O2-  O240  1  0.50029567  0.49230533  0.32264533  1
  O2-  O241  1  0.87842167  0.40989233  0.15081633  1
  O2-  O242  1  0.95449933  0.25856267  0.15193267  1
  O2-  O243  1  0.47661467  0.87076733  0.48791433  1
  O2-  O244  1  0.01741300  0.60995700  0.15650500  1
  O2-  O245  1  0.04698267  0.23695533  0.99550533  1
  O2-  O246  1  0.56659100  0.84780100  0.32943700  1
  O2-  O247  1  0.15961900  0.32718600  0.15206300  1
  O2-  O248  1  0.28121000  0.43340900  0.32943700  1
  O2-  O249  1  0.15219900  0.71879000  0.32943700  1
  O2-  O250  1  0.50769467  0.00799033  0.32264533  1
  O2-  O251  1  0.23555667  0.18839433  0.15213033  1
  O2-  O252  1  0.09060333  0.47261867  0.14377967  1
  O2-  O253  1  0.65374967  0.72281833  0.32347033  1
  O2-  O254  1  0.80491967  0.44571433  0.33002033  1
  O2-  O255  1  0.22450433  0.58056167  0.32950467  1
  O2-  O256  1  0.18446067  0.45302233  0.98843833  1
  O2-  O257  1  0.04659067  0.74090833  0.98766833  1
  O2-  O258  1  0.35605733  0.77549567  0.32950467  1
  O2-  O259  1  0.25909167  0.30568233  0.98766833  1
  O2-  O260  1  0.64079467  0.19508033  0.33002033  1
  O2-  O261  1  0.11438467  0.58658733  0.98931433  1
  O2-  O262  1  0.41943833  0.64394267  0.32950467  1
  O2-  O263  1  0.16756700  0.84038100  0.15206300  1
  O2-  O264  1  0.74143733  0.69593667  0.15193267  1
  O2-  O265  1  0.67281400  0.83243300  0.15206300  1
  O2-  O266  1  0.24075400  0.68950100  0.15232200  1
  O2-  O267  1  0.31049900  0.55125300  0.15232200  1
  O2-  O268  1  0.39004300  0.40745600  0.15650500  1
  O2-  O269  1  0.12923267  0.60584733  0.48791433  1
  O2-  O270  1  0.20605333  0.56421167  0.81791167  1
  O2-  O271  1  0.33333333  0.66666667  0.98900467  1
  O2-  O272  1  0.44874700  0.75924600  0.15232200  1
  O2-  O273  1  0.30406333  0.04550067  0.15193267  1
  O2-  O274  1  0.18997267  0.95301733  0.99550533  1
  O2-  O275  1  0.59010767  0.46852933  0.15081633  1
  O2-  O276  1  0.26856167  0.81553933  0.98843833  1
  O2-  O277  1  0.95283767  0.76444333  0.15213033  1
  O2-  O278  1  0.52738133  0.61798467  0.14377967  1
  O2-  O279  1  0.81160567  0.04716233  0.15213033  1
  O2-  O280  1  0.38201533  0.90939667  0.14377967  1
  O2-  O281  1  0.41341267  0.52779733  0.98931433  1
  O2-  O282  1  0.47220267  0.88561533  0.98931433  1
  O2-  O283  1  0.27718167  0.93093133  0.32347033  1
  O2-  O284  1  0.54697767  0.73143833  0.98843833  1
  O2-  O285  1  0.35815833  0.79394667  0.81791167  1
  O2-  O286  1  0.43578833  0.64184167  0.81791167  1
  O2-  O287  1  0.59254400  0.98258700  0.15650500  1
  O2-  O288  1  0.53147067  0.12157833  0.15081633  1
  O2-  O289  1  0.76304467  0.81002733  0.99550533  1
  O2-  O290  1  0.69431767  0.95340933  0.98766833  1
