# generated using pymatgen
data_Fe43O64
_symmetry_space_group_name_H-M   'P 1'
_cell_length_a   12.02162600
_cell_length_b   12.10556200
_cell_length_c   17.05978047
_cell_angle_alpha   90.00000000
_cell_angle_beta   90.34899370
_cell_angle_gamma   90.00000000
_symmetry_Int_Tables_number   1
_chemical_formula_structural   Fe43O64
_chemical_formula_sum   'Fe86 O128'
_cell_volume   2482.63887006
_cell_formula_units_Z   2
loop_
 _symmetry_equiv_pos_site_id
 _symmetry_equiv_pos_as_xyz
  1  'x, y, z'
loop_
 _atom_type_symbol
 _atom_type_oxidation_number
  Fe2+  2.0
  Fe3+  3.0
  O2-  -2.0
loop_
 _atom_site_type_symbol
 _atom_site_label
 _atom_site_symmetry_multiplicity
 _atom_site_fract_x
 _atom_site_fract_y
 _atom_site_fract_z
 _atom_site_occupancy
  Fe2+  Fe0  1  0.50000000  0.37444400  0.00000000  1
  Fe2+  Fe1  1  0.00000000  0.87444400  0.00000000  1
  Fe3+  Fe2  1  0.12976700  0.12271000  0.06439900  1
  Fe3+  Fe3  1  0.13194500  0.12883700  0.56443500  1
  Fe3+  Fe4  1  0.12643950  0.00596850  0.87838500  1
  Fe3+  Fe5  1  0.11525550  0.99870050  0.37890000  1
  Fe3+  Fe6  1  0.25839650  0.12349650  0.25238800  1
  Fe3+  Fe7  1  0.25863900  0.13171200  0.75682300  1
  Fe3+  Fe8  1  0.38235650  0.24810150  0.12802200  1
  Fe3+  Fe9  1  0.38959600  0.25068600  0.62646000  1
  Fe3+  Fe10  1  0.12597550  0.88169550  0.18978600  1
  Fe3+  Fe11  1  0.12929750  0.87965050  0.69180800  1
  Fe3+  Fe12  1  0.37891550  0.11816750  0.94145900  1
  Fe3+  Fe13  1  0.37236900  0.12324600  0.44240600  1
  Fe3+  Fe14  1  0.61764350  0.24810150  0.87197800  1
  Fe3+  Fe15  1  0.61040400  0.25068600  0.37354000  1
  Fe3+  Fe16  1  0.25151650  0.86706750  0.00550300  1
  Fe3+  Fe17  1  0.23983300  0.87584900  0.50240300  1
  Fe3+  Fe18  1  0.38232250  0.99324250  0.12983000  1
  Fe3+  Fe19  1  0.38255400  0.00328300  0.63095500  1
  Fe3+  Fe20  1  0.36864400  0.87615000  0.81525600  1
  Fe3+  Fe21  1  0.36665300  0.87104000  0.31247400  1
  Fe3+  Fe22  1  0.62108450  0.11816750  0.05854100  1
  Fe3+  Fe23  1  0.62763100  0.12324600  0.55759400  1
  Fe3+  Fe24  1  0.74136100  0.13171200  0.24317700  1
  Fe3+  Fe25  1  0.74160350  0.12349650  0.74761200  1
  Fe3+  Fe26  1  0.61767750  0.99324250  0.87017000  1
  Fe3+  Fe27  1  0.61744600  0.00328300  0.36904500  1
  Fe3+  Fe28  1  0.37562900  0.74999900  0.62589200  1
  Fe3+  Fe29  1  0.50000000  0.86208000  0.00000000  1
  Fe3+  Fe30  1  0.50000000  0.87596300  0.50000000  1
  Fe3+  Fe31  1  0.87023300  0.12271000  0.93560100  1
  Fe3+  Fe32  1  0.86805500  0.12883700  0.43556500  1
  Fe3+  Fe33  1  0.63135600  0.87615000  0.18474400  1
  Fe3+  Fe34  1  0.63334700  0.87104000  0.68752600  1
  Fe3+  Fe35  1  0.50299850  0.63123150  0.75590300  1
  Fe3+  Fe36  1  0.49700150  0.63123150  0.24409700  1
  Fe3+  Fe37  1  0.62437100  0.74999900  0.37410800  1
  Fe3+  Fe38  1  0.87356050  0.00596850  0.12161500  1
  Fe3+  Fe39  1  0.88474450  0.99870050  0.62110000  1
  Fe3+  Fe40  1  0.74848350  0.86706750  0.99449700  1
  Fe3+  Fe41  1  0.76016700  0.87584900  0.49759700  1
  Fe3+  Fe42  1  0.87070250  0.87965050  0.30819200  1
  Fe3+  Fe43  1  0.87402450  0.88169550  0.81021400  1
  Fe3+  Fe44  1  0.62976700  0.62271000  0.06439900  1
  Fe3+  Fe45  1  0.63194500  0.62883700  0.56443500  1
  Fe3+  Fe46  1  0.62643950  0.50596850  0.87838500  1
  Fe3+  Fe47  1  0.61525550  0.49870050  0.37890000  1
  Fe3+  Fe48  1  0.75839650  0.62349650  0.25238800  1
  Fe3+  Fe49  1  0.75863900  0.63171200  0.75682300  1
  Fe3+  Fe50  1  0.88235650  0.74810150  0.12802200  1
  Fe3+  Fe51  1  0.88959600  0.75068600  0.62646000  1
  Fe3+  Fe52  1  0.62597550  0.38169550  0.18978600  1
  Fe3+  Fe53  1  0.62929750  0.37965050  0.69180800  1
  Fe3+  Fe54  1  0.87891550  0.61816750  0.94145900  1
  Fe3+  Fe55  1  0.87236900  0.62324600  0.44240600  1
  Fe3+  Fe56  1  0.11764350  0.74810150  0.87197800  1
  Fe3+  Fe57  1  0.11040400  0.75068600  0.37354000  1
  Fe3+  Fe58  1  0.75151650  0.36706750  0.00550300  1
  Fe3+  Fe59  1  0.73983300  0.37584900  0.50240300  1
  Fe3+  Fe60  1  0.88232250  0.49324250  0.12983000  1
  Fe3+  Fe61  1  0.88255400  0.50328300  0.63095500  1
  Fe3+  Fe62  1  0.86864400  0.37615000  0.81525600  1
  Fe3+  Fe63  1  0.86665300  0.37104000  0.31247400  1
  Fe3+  Fe64  1  0.12108450  0.61816750  0.05854100  1
  Fe3+  Fe65  1  0.12763100  0.62324600  0.55759400  1
  Fe3+  Fe66  1  0.24136100  0.63171200  0.24317700  1
  Fe3+  Fe67  1  0.24160350  0.62349650  0.74761200  1
  Fe3+  Fe68  1  0.11767750  0.49324250  0.87017000  1
  Fe3+  Fe69  1  0.11744600  0.50328300  0.36904500  1
  Fe3+  Fe70  1  0.87562900  0.24999900  0.62589200  1
  Fe3+  Fe71  1  0.00000000  0.36208000  0.00000000  1
  Fe3+  Fe72  1  0.00000000  0.37596300  0.50000000  1
  Fe3+  Fe73  1  0.37023300  0.62271000  0.93560100  1
  Fe3+  Fe74  1  0.36805500  0.62883700  0.43556500  1
  Fe3+  Fe75  1  0.13135600  0.37615000  0.18474400  1
  Fe3+  Fe76  1  0.13334700  0.37104000  0.68752600  1
  Fe3+  Fe77  1  0.00299850  0.13123150  0.75590300  1
  Fe3+  Fe78  1  0.99700150  0.13123150  0.24409700  1
  Fe3+  Fe79  1  0.12437100  0.24999900  0.37410800  1
  Fe3+  Fe80  1  0.37356050  0.50596850  0.12161500  1
  Fe3+  Fe81  1  0.38474450  0.49870050  0.62110000  1
  Fe3+  Fe82  1  0.24848350  0.36706750  0.99449700  1
  Fe3+  Fe83  1  0.26016700  0.37584900  0.49759700  1
  Fe3+  Fe84  1  0.37070250  0.37965050  0.30819200  1
  Fe3+  Fe85  1  0.37402450  0.38169550  0.81021400  1
  O2-  O86  1  0.12380900  0.01464000  0.25880600  1
  O2-  O87  1  0.12502900  0.01335500  0.75529600  1
  O2-  O88  1  0.49073550  0.37460750  0.12751500  1
  O2-  O89  1  0.49501300  0.37761800  0.63171100  1
  O2-  O90  1  0.35979300  0.25219900  0.24588100  1
  O2-  O91  1  0.36218700  0.25599000  0.74283100  1
  O2-  O92  1  0.50926450  0.37460750  0.87248500  1
  O2-  O93  1  0.50498700  0.37761800  0.36828900  1
  O2-  O94  1  0.37044500  0.25323600  0.00418000  1
  O2-  O95  1  0.36008100  0.24830600  0.50746300  1
  O2-  O96  1  0.25543750  0.11031650  0.87106000  1
  O2-  O97  1  0.24051850  0.12677650  0.37227100  1
  O2-  O98  1  0.12902500  0.99536600  0.99513200  1
  O2-  O99  1  0.13807750  0.00607450  0.49649200  1
  O2-  O100  1  0.26137900  0.12604700  0.13311900  1
  O2-  O101  1  0.26373300  0.12378000  0.63048900  1
  O2-  O102  1  0.23660700  0.87387000  0.88143500  1
  O2-  O103  1  0.23697900  0.87783500  0.38287300  1
  O2-  O104  1  0.36223100  0.99632300  0.24752300  1
  O2-  O105  1  0.36059450  0.99648550  0.74339800  1
  O2-  O106  1  0.24722850  0.89076050  0.12011300  1
  O2-  O107  1  0.25963750  0.87401250  0.62040500  1
  O2-  O108  1  0.64020700  0.25219900  0.75411900  1
  O2-  O109  1  0.63781300  0.25599000  0.25716900  1
  O2-  O110  1  0.48719800  0.12428300  0.11625000  1
  O2-  O111  1  0.49390500  0.12342700  0.61597600  1
  O2-  O112  1  0.62955500  0.25323600  0.99582000  1
  O2-  O113  1  0.63991900  0.24830600  0.49253700  1
  O2-  O114  1  0.51280200  0.12428300  0.88375000  1
  O2-  O115  1  0.50609500  0.12342700  0.38402400  1
  O2-  O116  1  0.37449950  0.98496350  0.00742700  1
  O2-  O117  1  0.37503100  0.98688800  0.50551200  1
  O2-  O118  1  0.73862100  0.12604700  0.86688100  1
  O2-  O119  1  0.73626700  0.12378000  0.36951100  1
  O2-  O120  1  0.37415400  0.75703400  0.99227200  1
  O2-  O121  1  0.37651650  0.75968950  0.50412000  1
  O2-  O122  1  0.49531350  0.88638250  0.87972300  1
  O2-  O123  1  0.50516350  0.87369550  0.37920200  1
  O2-  O124  1  0.37392550  0.73602650  0.25922800  1
  O2-  O125  1  0.37701100  0.74312400  0.74470800  1
  O2-  O126  1  0.50468650  0.88638250  0.12027700  1
  O2-  O127  1  0.49483650  0.87369550  0.62079800  1
  O2-  O128  1  0.63940550  0.99648550  0.25660200  1
  O2-  O129  1  0.63776900  0.99632300  0.75247700  1
  O2-  O130  1  0.74456250  0.11031650  0.12894000  1
  O2-  O131  1  0.75948150  0.12677650  0.62772900  1
  O2-  O132  1  0.62550050  0.98496350  0.99257300  1
  O2-  O133  1  0.62496900  0.98688800  0.49448800  1
  O2-  O134  1  0.87497100  0.01335500  0.24470400  1
  O2-  O135  1  0.87619100  0.01464000  0.74119400  1
  O2-  O136  1  0.75277150  0.89076050  0.87988700  1
  O2-  O137  1  0.74036250  0.87401250  0.37959500  1
  O2-  O138  1  0.87097500  0.99536600  0.00486800  1
  O2-  O139  1  0.86192250  0.00607450  0.50350800  1
  O2-  O140  1  0.49691600  0.61023300  0.86969600  1
  O2-  O141  1  0.50636950  0.62707650  0.37433700  1
  O2-  O142  1  0.62584600  0.75703400  0.00772800  1
  O2-  O143  1  0.62348350  0.75968950  0.49588000  1
  O2-  O144  1  0.50308400  0.61023300  0.13030400  1
  O2-  O145  1  0.49363050  0.62707650  0.62566300  1
  O2-  O146  1  0.62607450  0.73602650  0.74077200  1
  O2-  O147  1  0.62298900  0.74312400  0.25529200  1
  O2-  O148  1  0.76339300  0.87387000  0.11856500  1
  O2-  O149  1  0.76302100  0.87783500  0.61712700  1
  O2-  O150  1  0.62380900  0.51464000  0.25880600  1
  O2-  O151  1  0.62502900  0.51335500  0.75529600  1
  O2-  O152  1  0.99073550  0.87460750  0.12751500  1
  O2-  O153  1  0.99501300  0.87761800  0.63171100  1
  O2-  O154  1  0.85979300  0.75219900  0.24588100  1
  O2-  O155  1  0.86218700  0.75599000  0.74283100  1
  O2-  O156  1  0.00926450  0.87460750  0.87248500  1
  O2-  O157  1  0.00498700  0.87761800  0.36828900  1
  O2-  O158  1  0.87044500  0.75323600  0.00418000  1
  O2-  O159  1  0.86008100  0.74830600  0.50746300  1
  O2-  O160  1  0.75543750  0.61031650  0.87106000  1
  O2-  O161  1  0.74051850  0.62677650  0.37227100  1
  O2-  O162  1  0.62902500  0.49536600  0.99513200  1
  O2-  O163  1  0.63807750  0.50607450  0.49649200  1
  O2-  O164  1  0.76137900  0.62604700  0.13311900  1
  O2-  O165  1  0.76373300  0.62378000  0.63048900  1
  O2-  O166  1  0.73660700  0.37387000  0.88143500  1
  O2-  O167  1  0.73697900  0.37783500  0.38287300  1
  O2-  O168  1  0.86223100  0.49632300  0.24752300  1
  O2-  O169  1  0.86059450  0.49648550  0.74339800  1
  O2-  O170  1  0.74722850  0.39076050  0.12011300  1
  O2-  O171  1  0.75963750  0.37401250  0.62040500  1
  O2-  O172  1  0.14020700  0.75219900  0.75411900  1
  O2-  O173  1  0.13781300  0.75599000  0.25716900  1
  O2-  O174  1  0.98719800  0.62428300  0.11625000  1
  O2-  O175  1  0.99390500  0.62342700  0.61597600  1
  O2-  O176  1  0.12955500  0.75323600  0.99582000  1
  O2-  O177  1  0.13991900  0.74830600  0.49253700  1
  O2-  O178  1  0.01280200  0.62428300  0.88375000  1
  O2-  O179  1  0.00609500  0.62342700  0.38402400  1
  O2-  O180  1  0.87449950  0.48496350  0.00742700  1
  O2-  O181  1  0.87503100  0.48688800  0.50551200  1
  O2-  O182  1  0.23862100  0.62604700  0.86688100  1
  O2-  O183  1  0.23626700  0.62378000  0.36951100  1
  O2-  O184  1  0.87415400  0.25703400  0.99227200  1
  O2-  O185  1  0.87651650  0.25968950  0.50412000  1
  O2-  O186  1  0.99531350  0.38638250  0.87972300  1
  O2-  O187  1  0.00516350  0.37369550  0.37920200  1
  O2-  O188  1  0.87392550  0.23602650  0.25922800  1
  O2-  O189  1  0.87701100  0.24312400  0.74470800  1
  O2-  O190  1  0.00468650  0.38638250  0.12027700  1
  O2-  O191  1  0.99483650  0.37369550  0.62079800  1
  O2-  O192  1  0.13940550  0.49648550  0.25660200  1
  O2-  O193  1  0.13776900  0.49632300  0.75247700  1
  O2-  O194  1  0.24456250  0.61031650  0.12894000  1
  O2-  O195  1  0.25948150  0.62677650  0.62772900  1
  O2-  O196  1  0.12550050  0.48496350  0.99257300  1
  O2-  O197  1  0.12496900  0.48688800  0.49448800  1
  O2-  O198  1  0.37497100  0.51335500  0.24470400  1
  O2-  O199  1  0.37619100  0.51464000  0.74119400  1
  O2-  O200  1  0.25277150  0.39076050  0.87988700  1
  O2-  O201  1  0.24036250  0.37401250  0.37959500  1
  O2-  O202  1  0.37097500  0.49536600  0.00486800  1
  O2-  O203  1  0.36192250  0.50607450  0.50350800  1
  O2-  O204  1  0.99691600  0.11023300  0.86969600  1
  O2-  O205  1  0.00636950  0.12707650  0.37433700  1
  O2-  O206  1  0.12584600  0.25703400  0.00772800  1
  O2-  O207  1  0.12348350  0.25968950  0.49588000  1
  O2-  O208  1  0.00308400  0.11023300  0.13030400  1
  O2-  O209  1  0.99363050  0.12707650  0.62566300  1
  O2-  O210  1  0.12607450  0.23602650  0.74077200  1
  O2-  O211  1  0.12298900  0.24312400  0.25529200  1
  O2-  O212  1  0.26339300  0.37387000  0.11856500  1
  O2-  O213  1  0.26302100  0.37783500  0.61712700  1
