# generated using pymatgen
data_Fe4O5
_symmetry_space_group_name_H-M   'P 1'
_cell_length_a   2.90751800
_cell_length_b   10.16656000
_cell_length_c   12.80586700
_cell_angle_alpha   90.00000000
_cell_angle_beta   90.00000000
_cell_angle_gamma   90.00000000
_symmetry_Int_Tables_number   1
_chemical_formula_structural   Fe4O5
_chemical_formula_sum   'Fe16 O20'
_cell_volume   378.53446466
_cell_formula_units_Z   4
loop_
 _symmetry_equiv_pos_site_id
 _symmetry_equiv_pos_as_xyz
  1  'x, y, z'
loop_
 _atom_type_symbol
 _atom_type_oxidation_number
  Fe2+  2.0
  Fe3+  3.0
  O2-  -2.0
loop_
 _atom_site_type_symbol
 _atom_site_label
 _atom_site_symmetry_multiplicity
 _atom_site_fract_x
 _atom_site_fract_y
 _atom_site_fract_z
 _atom_site_occupancy
  Fe2+  Fe0  1  0.00000000  0.26122100  0.88467700  1
  Fe2+  Fe1  1  0.50000000  0.23877900  0.11532300  1
  Fe2+  Fe2  1  0.00000000  0.26122100  0.61532300  1
  Fe2+  Fe3  1  0.50000000  0.23877900  0.38467700  1
  Fe2+  Fe4  1  0.50000000  0.76122100  0.88467700  1
  Fe2+  Fe5  1  0.00000000  0.73877900  0.11532300  1
  Fe2+  Fe6  1  0.50000000  0.76122100  0.61532300  1
  Fe2+  Fe7  1  0.00000000  0.73877900  0.38467700  1
  Fe3+  Fe8  1  0.00000000  0.00000000  0.00000000  1
  Fe3+  Fe9  1  0.00000000  0.00000000  0.50000000  1
  Fe3+  Fe10  1  0.50000000  0.00489900  0.75000000  1
  Fe3+  Fe11  1  0.00000000  0.49510100  0.25000000  1
  Fe3+  Fe12  1  0.50000000  0.50000000  0.00000000  1
  Fe3+  Fe13  1  0.50000000  0.50000000  0.50000000  1
  Fe3+  Fe14  1  0.00000000  0.50489900  0.75000000  1
  Fe3+  Fe15  1  0.50000000  0.99510100  0.25000000  1
  O2-  O16  1  0.00000000  0.14958900  0.75000000  1
  O2-  O17  1  0.50000000  0.35041100  0.25000000  1
  O2-  O18  1  0.00000000  0.36791700  0.46375900  1
  O2-  O19  1  0.50000000  0.13208300  0.53624100  1
  O2-  O20  1  0.00000000  0.36791700  0.03624100  1
  O2-  O21  1  0.50000000  0.13208300  0.96375900  1
  O2-  O22  1  0.00000000  0.08072400  0.35134200  1
  O2-  O23  1  0.50000000  0.41927600  0.64865800  1
  O2-  O24  1  0.00000000  0.08072400  0.14865800  1
  O2-  O25  1  0.50000000  0.41927600  0.85134200  1
  O2-  O26  1  0.50000000  0.64958900  0.75000000  1
  O2-  O27  1  0.00000000  0.85041100  0.25000000  1
  O2-  O28  1  0.50000000  0.86791700  0.46375900  1
  O2-  O29  1  0.00000000  0.63208300  0.53624100  1
  O2-  O30  1  0.50000000  0.86791700  0.03624100  1
  O2-  O31  1  0.00000000  0.63208300  0.96375900  1
  O2-  O32  1  0.50000000  0.58072400  0.35134200  1
  O2-  O33  1  0.00000000  0.91927600  0.64865800  1
  O2-  O34  1  0.50000000  0.58072400  0.14865800  1
  O2-  O35  1  0.00000000  0.91927600  0.85134200  1
