# generated using pymatgen
data_FeO2
_symmetry_space_group_name_H-M   'P 1'
_cell_length_a   10.08300096
_cell_length_b   2.96948700
_cell_length_c   10.20543766
_cell_angle_alpha   90.00000000
_cell_angle_beta   90.19498591
_cell_angle_gamma   90.00000000
_symmetry_Int_Tables_number   1
_chemical_formula_structural   FeO2
_chemical_formula_sum   'Fe8 O16'
_cell_volume   305.56271225
_cell_formula_units_Z   8
loop_
 _symmetry_equiv_pos_site_id
 _symmetry_equiv_pos_as_xyz
  1  'x, y, z'
loop_
 _atom_type_symbol
 _atom_type_oxidation_number
  Fe4+  4.0
  O2-  -2.0
loop_
 _atom_site_type_symbol
 _atom_site_label
 _atom_site_symmetry_multiplicity
 _atom_site_fract_x
 _atom_site_fract_y
 _atom_site_fract_z
 _atom_site_occupancy
  Fe4+  Fe0  1  0.65988500  0.00000000  0.13549100  1
  Fe4+  Fe1  1  0.85156100  0.00000000  0.65266100  1
  Fe4+  Fe2  1  0.16849100  0.50000000  0.61471700  1
  Fe4+  Fe3  1  0.33792400  0.50000000  0.12302100  1
  Fe4+  Fe4  1  0.33182900  0.00000000  0.81116100  1
  Fe4+  Fe5  1  0.14509000  0.00000000  0.29971000  1
  Fe4+  Fe6  1  0.82647700  0.50000000  0.33823700  1
  Fe4+  Fe7  1  0.64785000  0.50000000  0.82030900  1
  O2-  O8  1  0.70200200  0.00000000  0.33262500  1
  O2-  O9  1  0.95166700  0.00000000  0.32566600  1
  O2-  O10  1  0.65824900  0.00000000  0.69743600  1
  O2-  O11  1  0.66058200  0.00000000  0.94243500  1
  O2-  O12  1  0.20611200  0.50000000  0.80459000  1
  O2-  O13  1  0.45199800  0.50000000  0.80649100  1
  O2-  O14  1  0.13987500  0.50000000  0.17612300  1
  O2-  O15  1  0.16540500  0.50000000  0.42459600  1
  O2-  O16  1  0.29692700  0.00000000  0.62301800  1
  O2-  O17  1  0.04367700  0.00000000  0.62702500  1
  O2-  O18  1  0.33540600  0.00000000  0.24754900  1
  O2-  O19  1  0.32951700  0.00000000  0.99724600  1
  O2-  O20  1  0.78352800  0.50000000  0.14224900  1
  O2-  O21  1  0.53616600  0.50000000  0.14017400  1
  O2-  O22  1  0.85574600  0.50000000  0.77292800  1
  O2-  O23  1  0.82903500  0.50000000  0.53104300  1
