# generated using pymatgen
data_FeO2
_symmetry_space_group_name_H-M   'P 1'
_cell_length_a   3.86088000
_cell_length_b   3.86088000
_cell_length_c   9.26085200
_cell_angle_alpha   90.00000000
_cell_angle_beta   90.00000000
_cell_angle_gamma   90.00000000
_symmetry_Int_Tables_number   1
_chemical_formula_structural   FeO2
_chemical_formula_sum   'Fe4 O8'
_cell_volume   138.04591215
_cell_formula_units_Z   4
loop_
 _symmetry_equiv_pos_site_id
 _symmetry_equiv_pos_as_xyz
  1  'x, y, z'
loop_
 _atom_type_symbol
 _atom_type_oxidation_number
  Fe4+  4.0
  O2-  -2.0
loop_
 _atom_site_type_symbol
 _atom_site_label
 _atom_site_symmetry_multiplicity
 _atom_site_fract_x
 _atom_site_fract_y
 _atom_site_fract_z
 _atom_site_occupancy
  Fe4+  Fe0  1  0.00000000  0.00000000  0.00000000  1
  Fe4+  Fe1  1  0.00000000  0.50000000  0.25000000  1
  Fe4+  Fe2  1  0.50000000  0.50000000  0.50000000  1
  Fe4+  Fe3  1  0.50000000  0.00000000  0.75000000  1
  O2-  O4  1  0.00000000  0.50000000  0.04230000  1
  O2-  O5  1  0.00000000  0.00000000  0.20770000  1
  O2-  O6  1  0.50000000  0.50000000  0.29230000  1
  O2-  O7  1  0.00000000  0.50000000  0.45770000  1
  O2-  O8  1  0.50000000  0.00000000  0.54230000  1
  O2-  O9  1  0.50000000  0.50000000  0.70770000  1
  O2-  O10  1  0.00000000  0.00000000  0.79230000  1
  O2-  O11  1  0.50000000  0.00000000  0.95770000  1
