# generated using pymatgen
data_FeO2
_symmetry_space_group_name_H-M   'P 1'
_cell_length_a   5.95234393
_cell_length_b   5.95234393
_cell_length_c   14.07726016
_cell_angle_alpha   90.00000000
_cell_angle_beta   90.00000000
_cell_angle_gamma   120.00000000
_symmetry_Int_Tables_number   1
_chemical_formula_structural   FeO2
_chemical_formula_sum   'Fe12 O24'
_cell_volume   431.94137131
_cell_formula_units_Z   12
loop_
 _symmetry_equiv_pos_site_id
 _symmetry_equiv_pos_as_xyz
  1  'x, y, z'
loop_
 _atom_type_symbol
 _atom_type_oxidation_number
  Fe3+  3.0
  Fe4+  4.0
  O2-  -2.0
  O-  -1.0
loop_
 _atom_site_type_symbol
 _atom_site_label
 _atom_site_symmetry_multiplicity
 _atom_site_fract_x
 _atom_site_fract_y
 _atom_site_fract_z
 _atom_site_occupancy
  Fe3+  Fe0  1  0.33333333  0.66666667  0.42709967  1
  Fe3+  Fe1  1  0.00000000  0.00000000  0.76043300  1
  Fe3+  Fe2  1  0.66666667  0.33333333  0.09376633  1
  Fe4+  Fe3  1  0.16144700  0.32289400  0.20799500  1
  Fe4+  Fe4  1  0.16144700  0.83855300  0.20799500  1
  Fe4+  Fe5  1  0.67710600  0.83855300  0.20799500  1
  Fe4+  Fe6  1  0.82811367  0.65622733  0.54132833  1
  Fe4+  Fe7  1  0.82811367  0.17188633  0.54132833  1
  Fe4+  Fe8  1  0.34377267  0.17188633  0.54132833  1
  Fe4+  Fe9  1  0.49478033  0.98956067  0.87466167  1
  Fe4+  Fe10  1  0.49478033  0.50521967  0.87466167  1
  Fe4+  Fe11  1  0.01043933  0.50521967  0.87466167  1
  O-  O12  1  0.33333333  0.66666667  0.79388067  1
  O-  O13  1  0.00000000  0.00000000  0.12721400  1
  O-  O14  1  0.66666667  0.33333333  0.46054733  1
  O2-  O15  1  0.01715000  0.50857500  0.13799700  1
  O2-  O16  1  0.49142500  0.50857500  0.13799700  1
  O2-  O17  1  0.49142500  0.98285000  0.13799700  1
  O2-  O18  1  0.33333333  0.66666667  0.28986967  1
  O2-  O19  1  0.18466467  0.36932933  0.94287333  1
  O2-  O20  1  0.18466467  0.81533533  0.94287333  1
  O2-  O21  1  0.63067067  0.81533533  0.94287333  1
  O2-  O22  1  0.68381667  0.84190833  0.47133033  1
  O2-  O23  1  0.15809167  0.84190833  0.47133033  1
  O2-  O24  1  0.15809167  0.31618333  0.47133033  1
  O2-  O25  1  0.00000000  0.00000000  0.62320300  1
  O2-  O26  1  0.85133133  0.70266267  0.27620667  1
  O2-  O27  1  0.85133133  0.14866867  0.27620667  1
  O2-  O28  1  0.29733733  0.14866867  0.27620667  1
  O2-  O29  1  0.35048333  0.17524167  0.80466367  1
  O2-  O30  1  0.82475833  0.17524167  0.80466367  1
  O2-  O31  1  0.82475833  0.64951667  0.80466367  1
  O2-  O32  1  0.66666667  0.33333333  0.95653633  1
  O2-  O33  1  0.51799800  0.03599600  0.60954000  1
  O2-  O34  1  0.51799800  0.48200200  0.60954000  1
  O2-  O35  1  0.96400400  0.48200200  0.60954000  1
