# generated using pymatgen
data_FeO2
_symmetry_space_group_name_H-M   'P 1'
_cell_length_a   10.09046400
_cell_length_b   5.96951000
_cell_length_c   19.46461181
_cell_angle_alpha   90.00000000
_cell_angle_beta   100.37251849
_cell_angle_gamma   90.00000000
_symmetry_Int_Tables_number   1
_chemical_formula_structural   FeO2
_chemical_formula_sum   'Fe32 O64'
_cell_volume   1153.29303993
_cell_formula_units_Z   32
loop_
 _symmetry_equiv_pos_site_id
 _symmetry_equiv_pos_as_xyz
  1  'x, y, z'
loop_
 _atom_site_type_symbol
 _atom_site_label
 _atom_site_symmetry_multiplicity
 _atom_site_fract_x
 _atom_site_fract_y
 _atom_site_fract_z
 _atom_site_occupancy
  Fe  Fe0  1  0.37597100  0.74191800  0.87515900  1
  Fe  Fe1  1  0.24709600  0.00000000  0.74558900  1
  Fe  Fe2  1  0.37597100  0.25808200  0.87515900  1
  Fe  Fe3  1  0.14996700  0.00000000  0.46490800  1
  Fe  Fe4  1  0.62139350  0.75078350  0.62181200  1
  Fe  Fe5  1  0.60359300  0.00000000  0.77903100  1
  Fe  Fe6  1  0.90106300  0.50000000  0.22085200  1
  Fe  Fe7  1  0.12139350  0.74921650  0.62181200  1
  Fe  Fe8  1  0.87380100  0.75118100  0.37581400  1
  Fe  Fe9  1  0.35103200  0.50000000  0.53441700  1
  Fe  Fe10  1  0.37380100  0.74881900  0.37581400  1
  Fe  Fe11  1  0.12870750  0.25451450  0.13010900  1
  Fe  Fe12  1  0.12870750  0.74548550  0.13010900  1
  Fe  Fe13  1  0.09776400  0.00000000  0.28431500  1
  Fe  Fe14  1  0.99725300  0.00000000  0.99762000  1
  Fe  Fe15  1  0.85298600  0.50000000  0.02853700  1
  Fe  Fe16  1  0.87597100  0.24191800  0.87515900  1
  Fe  Fe17  1  0.74709600  0.50000000  0.74558900  1
  Fe  Fe18  1  0.87597100  0.75808200  0.87515900  1
  Fe  Fe19  1  0.64996700  0.50000000  0.46490800  1
  Fe  Fe20  1  0.12139350  0.25078350  0.62181200  1
  Fe  Fe21  1  0.10359300  0.50000000  0.77903100  1
  Fe  Fe22  1  0.40106300  0.00000000  0.22085200  1
  Fe  Fe23  1  0.62139350  0.24921650  0.62181200  1
  Fe  Fe24  1  0.37380100  0.25118100  0.37581400  1
  Fe  Fe25  1  0.85103200  0.00000000  0.53441700  1
  Fe  Fe26  1  0.87380100  0.24881900  0.37581400  1
  Fe  Fe27  1  0.62870750  0.75451450  0.13010900  1
  Fe  Fe28  1  0.62870750  0.24548550  0.13010900  1
  Fe  Fe29  1  0.59776400  0.50000000  0.28431500  1
  Fe  Fe30  1  0.49725300  0.50000000  0.99762000  1
  Fe  Fe31  1  0.35298600  0.00000000  0.02853700  1
  O  O32  1  0.53839000  0.27732100  0.93708000  1
  O  O33  1  0.42507600  0.50000000  0.82361100  1
  O  O34  1  0.53839000  0.72267900  0.93708000  1
  O  O35  1  0.81560800  0.00000000  0.93376200  1
  O  O36  1  0.43121200  0.00000000  0.81154800  1
  O  O37  1  0.28529150  0.77738550  0.68554900  1
  O  O38  1  0.20456150  0.76436550  0.80950900  1
  O  O39  1  0.17403400  0.00000000  0.56239700  1
  O  O40  1  0.28529150  0.22261450  0.68554900  1
  O  O41  1  0.32612500  0.00000000  0.92894600  1
  O  O42  1  0.07503400  0.00000000  0.68178100  1
  O  O43  1  0.70456150  0.73563450  0.80950900  1
  O  O44  1  0.54902800  0.74337800  0.43239400  1
  O  O45  1  0.19208300  0.50000000  0.57248600  1
  O  O46  1  0.45033750  0.74599750  0.56795900  1
  O  O47  1  0.92988700  0.50000000  0.31775400  1
  O  O48  1  0.04902800  0.75662200  0.43239400  1
  O  O49  1  0.56909900  0.00000000  0.68091900  1
  O  O50  1  0.31383100  0.00000000  0.43118300  1
  O  O51  1  0.95033750  0.75400250  0.56795900  1
  O  O52  1  0.43410100  0.50000000  0.31895000  1
  O  O53  1  0.80727500  0.73496800  0.18352300  1
  O  O54  1  0.19974550  0.24160450  0.31748800  1
  O  O55  1  0.18711600  0.50000000  0.08435300  1
  O  O56  1  0.30727500  0.76503200  0.18352300  1
  O  O57  1  0.32245800  0.50000000  0.43521700  1
  O  O58  1  0.05711100  0.50000000  0.18329100  1
  O  O59  1  0.19974550  0.75839550  0.31748800  1
  O  O60  1  0.68227000  0.50000000  0.06273600  1
  O  O61  1  0.95711500  0.76131900  0.05981400  1
  O  O62  1  0.07752800  0.00000000  0.18375700  1
  O  O63  1  0.95711500  0.23868100  0.05981400  1
  O  O64  1  0.03839000  0.77732100  0.93708000  1
  O  O65  1  0.92507600  0.00000000  0.82361100  1
  O  O66  1  0.03839000  0.22267900  0.93708000  1
  O  O67  1  0.31560800  0.50000000  0.93376200  1
  O  O68  1  0.93121200  0.50000000  0.81154800  1
  O  O69  1  0.78529150  0.27738550  0.68554900  1
  O  O70  1  0.70456150  0.26436550  0.80950900  1
  O  O71  1  0.67403400  0.50000000  0.56239700  1
  O  O72  1  0.78529150  0.72261450  0.68554900  1
  O  O73  1  0.82612500  0.50000000  0.92894600  1
  O  O74  1  0.57503400  0.50000000  0.68178100  1
  O  O75  1  0.20456150  0.23563450  0.80950900  1
  O  O76  1  0.04902800  0.24337800  0.43239400  1
  O  O77  1  0.69208300  0.00000000  0.57248600  1
  O  O78  1  0.95033750  0.24599750  0.56795900  1
  O  O79  1  0.42988700  0.00000000  0.31775400  1
  O  O80  1  0.54902800  0.25662200  0.43239400  1
  O  O81  1  0.06909900  0.50000000  0.68091900  1
  O  O82  1  0.81383100  0.50000000  0.43118300  1
  O  O83  1  0.45033750  0.25400250  0.56795900  1
  O  O84  1  0.93410100  0.00000000  0.31895000  1
  O  O85  1  0.30727500  0.23496800  0.18352300  1
  O  O86  1  0.69974550  0.74160450  0.31748800  1
  O  O87  1  0.68711600  0.00000000  0.08435300  1
  O  O88  1  0.80727500  0.26503200  0.18352300  1
  O  O89  1  0.82245800  0.00000000  0.43521700  1
  O  O90  1  0.55711100  0.00000000  0.18329100  1
  O  O91  1  0.69974550  0.25839550  0.31748800  1
  O  O92  1  0.18227000  0.00000000  0.06273600  1
  O  O93  1  0.45711500  0.26131900  0.05981400  1
  O  O94  1  0.57752800  0.50000000  0.18375700  1
  O  O95  1  0.45711500  0.73868100  0.05981400  1
