# generated using pymatgen
data_FeO
_symmetry_space_group_name_H-M   'P 1'
_cell_length_a   9.92796715
_cell_length_b   10.50191222
_cell_length_c   11.03702151
_cell_angle_alpha   89.83269059
_cell_angle_beta   88.65811441
_cell_angle_gamma   88.24561313
_symmetry_Int_Tables_number   1
_chemical_formula_structural   FeO
_chemical_formula_sum   'Fe40 O40'
_cell_volume   1149.89134846
_cell_formula_units_Z   40
loop_
 _symmetry_equiv_pos_site_id
 _symmetry_equiv_pos_as_xyz
  1  'x, y, z'
loop_
 _atom_type_symbol
 _atom_type_oxidation_number
  Fe2+  2.0
  O2-  -2.0
loop_
 _atom_site_type_symbol
 _atom_site_label
 _atom_site_symmetry_multiplicity
 _atom_site_fract_x
 _atom_site_fract_y
 _atom_site_fract_z
 _atom_site_occupancy
  Fe2+  Fe0  1  0.71425700  0.81546100  0.37022300  1
  Fe2+  Fe1  1  0.03967600  0.79608500  0.17638000  1
  Fe2+  Fe2  1  0.64690100  0.22826900  0.90685500  1
  Fe2+  Fe3  1  0.78696300  0.95625600  0.08676600  1
  Fe2+  Fe4  1  0.21408900  0.99164900  0.09356300  1
  Fe2+  Fe5  1  0.54455100  0.98816900  0.94785000  1
  Fe2+  Fe6  1  0.21473200  0.87435900  0.37763000  1
  Fe2+  Fe7  1  0.41165000  0.21424000  0.09266500  1
  Fe2+  Fe8  1  0.09986100  0.78006500  0.59963600  1
  Fe2+  Fe9  1  0.68657900  0.67967500  0.60813200  1
  Fe2+  Fe10  1  0.94916900  0.28211400  0.43862100  1
  Fe2+  Fe11  1  0.64532600  0.46517400  0.46136700  1
  Fe2+  Fe12  1  0.80793700  0.67207500  0.09084300  1
  Fe2+  Fe13  1  0.42929300  0.46351800  0.92023400  1
  Fe2+  Fe14  1  0.43175400  0.09254400  0.73403400  1
  Fe2+  Fe15  1  0.04452700  0.04840000  0.65407000  1
  Fe2+  Fe16  1  0.71874900  0.19154100  0.61237700  1
  Fe2+  Fe17  1  0.03243800  0.51079000  0.05120700  1
  Fe2+  Fe18  1  0.77375200  0.50749500  0.81779800  1
  Fe2+  Fe19  1  0.35292100  0.62234500  0.40950700  1
  Fe2+  Fe20  1  0.13153700  0.29066400  0.20660200  1
  Fe2+  Fe21  1  0.56878000  0.49690700  0.16302200  1
  Fe2+  Fe22  1  0.79988300  0.24463900  0.17062100  1
  Fe2+  Fe23  1  0.75673700  0.92514100  0.71426900  1
  Fe2+  Fe24  1  0.52525900  0.03628700  0.50344300  1
  Fe2+  Fe25  1  0.44643300  0.02069400  0.25559300  1
  Fe2+  Fe26  1  0.59515300  0.24198700  0.34895200  1
  Fe2+  Fe27  1  0.94548300  0.75891000  0.85393700  1
  Fe2+  Fe28  1  0.07939400  0.55241300  0.33544600  1
  Fe2+  Fe29  1  0.24447300  0.22526200  0.88716800  1
  Fe2+  Fe30  1  0.98460200  0.01342500  0.32649400  1
  Fe2+  Fe31  1  0.46296300  0.51769700  0.66592100  1
  Fe2+  Fe32  1  0.96516100  0.28634100  0.76259300  1
  Fe2+  Fe33  1  0.44642800  0.81394300  0.62872200  1
  Fe2+  Fe34  1  0.93570800  0.52533200  0.59019800  1
  Fe2+  Fe35  1  0.31751600  0.29827600  0.45762700  1
  Fe2+  Fe36  1  0.28124400  0.79673700  0.88407600  1
  Fe2+  Fe37  1  0.28258500  0.63025200  0.12884700  1
  Fe2+  Fe38  1  0.18099200  0.53642500  0.80458200  1
  Fe2+  Fe39  1  0.60615600  0.72589800  0.90502800  1
  O2-  O40  1  0.62752400  0.87746300  0.58390900  1
  O2-  O41  1  0.75388800  0.48161900  0.62987200  1
  O2-  O42  1  0.54911600  0.92480400  0.36048800  1
  O2-  O43  1  0.41433200  0.20784600  0.29425300  1
  O2-  O44  1  0.18953100  0.45148300  0.13128800  1
  O2-  O45  1  0.90557500  0.57673900  0.93717000  1
  O2-  O46  1  0.42219200  0.00207800  0.08781400  1
  O2-  O47  1  0.69081100  0.38544300  0.24490800  1
  O2-  O48  1  0.12975900  0.36232300  0.38822000  1
  O2-  O49  1  0.44990200  0.17255100  0.90100500  1
  O2-  O50  1  0.43113600  0.46403800  0.50252600  1
  O2-  O51  1  0.70484700  0.12574500  0.06804400  1
  O2-  O52  1  0.42538000  0.90145800  0.80422900  1
  O2-  O53  1  0.96041800  0.61195100  0.19704800  1
  O2-  O54  1  0.62028800  0.63692000  0.06268000  1
  O2-  O55  1  0.29318800  0.76815600  0.53220000  1
  O2-  O56  1  0.39490100  0.15889400  0.57046100  1
  O2-  O57  1  0.31456100  0.38808400  0.80467700  1
  O2-  O58  1  0.65746800  0.09280000  0.75428300  1
  O2-  O59  1  0.80922300  0.31663500  0.85901600  1
  O2-  O60  1  0.96152900  0.19267700  0.26693000  1
  O2-  O61  1  0.20521400  0.81262000  0.05960300  1
  O2-  O62  1  0.09565600  0.15432700  0.79885800  1
  O2-  O63  1  0.14247300  0.72027600  0.76670300  1
  O2-  O64  1  0.03919200  0.64527500  0.50303800  1
  O2-  O65  1  0.51753500  0.36941500  0.04533500  1
  O2-  O66  1  0.42441200  0.56268500  0.25235900  1
  O2-  O67  1  0.55845600  0.54239200  0.81567300  1
  O2-  O68  1  0.31104600  0.60721400  0.94238200  1
  O2-  O69  1  0.20666800  0.17711100  0.07071600  1
  O2-  O70  1  0.95841900  0.88447700  0.70011600  1
  O2-  O71  1  0.70103200  0.64502700  0.43219500  1
  O2-  O72  1  0.85708100  0.89010400  0.26304200  1
  O2-  O73  1  0.74018700  0.27861300  0.45636500  1
  O2-  O74  1  0.74538300  0.73370700  0.77535300  1
  O2-  O75  1  0.91034500  0.82960500  0.02209300  1
  O2-  O76  1  0.03584000  0.44718200  0.72287800  1
  O2-  O77  1  0.08518400  0.95801800  0.48861100  1
  O2-  O78  1  0.93276200  0.20726000  0.60745100  1
  O2-  O79  1  0.20344100  0.71226600  0.29476700  1
