# generated using pymatgen
data_FeO
_symmetry_space_group_name_H-M   'P 1'
_cell_length_a   9.94488518
_cell_length_b   10.45738117
_cell_length_c   10.65905206
_cell_angle_alpha   81.21909010
_cell_angle_beta   87.57439992
_cell_angle_gamma   86.29305240
_symmetry_Int_Tables_number   1
_chemical_formula_structural   FeO
_chemical_formula_sum   'Fe40 O40'
_cell_volume   1092.63761928
_cell_formula_units_Z   40
loop_
 _symmetry_equiv_pos_site_id
 _symmetry_equiv_pos_as_xyz
  1  'x, y, z'
loop_
 _atom_type_symbol
 _atom_type_oxidation_number
  Fe2+  2.0
  O2-  -2.0
loop_
 _atom_site_type_symbol
 _atom_site_label
 _atom_site_symmetry_multiplicity
 _atom_site_fract_x
 _atom_site_fract_y
 _atom_site_fract_z
 _atom_site_occupancy
  Fe2+  Fe0  1  0.10637600  0.14426500  0.11498200  1
  Fe2+  Fe1  1  0.83440100  0.35426800  0.23832000  1
  Fe2+  Fe2  1  0.84262800  0.94236500  0.99791200  1
  Fe2+  Fe3  1  0.15054500  0.01906700  0.84001300  1
  Fe2+  Fe4  1  0.42788700  0.01630100  0.05996200  1
  Fe2+  Fe5  1  0.66849500  0.14570200  0.13686600  1
  Fe2+  Fe6  1  0.07016600  0.43349400  0.89498500  1
  Fe2+  Fe7  1  0.30804600  0.24565500  0.84553700  1
  Fe2+  Fe8  1  0.11715600  0.53164700  0.31621600  1
  Fe2+  Fe9  1  0.78899800  0.58368500  0.40327400  1
  Fe2+  Fe10  1  0.27807300  0.55164800  0.57007900  1
  Fe2+  Fe11  1  0.59362300  0.69585200  0.67780900  1
  Fe2+  Fe12  1  0.69967000  0.21021700  0.47522900  1
  Fe2+  Fe13  1  0.28779000  0.06182000  0.56472600  1
  Fe2+  Fe14  1  0.64178800  0.81647600  0.17304900  1
  Fe2+  Fe15  1  0.05115300  0.73038000  0.88198800  1
  Fe2+  Fe16  1  0.77498600  0.61580700  0.88761900  1
  Fe2+  Fe17  1  0.91988800  0.04894800  0.28245700  1
  Fe2+  Fe18  1  0.42302300  0.80238800  0.87339100  1
  Fe2+  Fe19  1  0.33063400  0.32958200  0.14032000  1
  Fe2+  Fe20  1  0.98997400  0.03620300  0.57602500  1
  Fe2+  Fe21  1  0.35642000  0.30720300  0.45787600  1
  Fe2+  Fe22  1  0.77307600  0.90352500  0.72917100  1
  Fe2+  Fe23  1  0.89845100  0.66467100  0.12469200  1
  Fe2+  Fe24  1  0.53679500  0.49307300  0.34734300  1
  Fe2+  Fe25  1  0.83814200  0.18711200  0.71545700  1
  Fe2+  Fe26  1  0.55906800  0.41967300  0.68544400  1
  Fe2+  Fe27  1  0.44576400  0.08881400  0.31729700  1
  Fe2+  Fe28  1  0.09202800  0.23223800  0.39862500  1
  Fe2+  Fe29  1  0.97205800  0.69120700  0.60152500  1
  Fe2+  Fe30  1  0.86480400  0.26236900  0.95742600  1
  Fe2+  Fe31  1  0.26461100  0.81069100  0.64971200  1
  Fe2+  Fe32  1  0.53834700  0.07972200  0.67697000  1
  Fe2+  Fe33  1  0.57486900  0.45909300  0.99769800  1
  Fe2+  Fe34  1  0.02807000  0.39255900  0.61916900  1
  Fe2+  Fe35  1  0.34147700  0.51807200  0.83550900  1
  Fe2+  Fe36  1  0.39618400  0.64352000  0.13448000  1
  Fe2+  Fe37  1  0.17633700  0.84515000  0.12110200  1
  Fe2+  Fe38  1  0.15576500  0.89428400  0.41628200  1
  Fe2+  Fe39  1  0.50680900  0.79159200  0.41824600  1
  O2-  O40  1  0.71831600  0.41445600  0.38863900  1
  O2-  O41  1  0.91913100  0.54091600  0.53613600  1
  O2-  O42  1  0.72929300  0.33940100  0.06412300  1
  O2-  O43  1  0.25711000  0.37787100  0.96340700  1
  O2-  O44  1  0.09765800  0.96144700  0.24521700  1
  O2-  O45  1  0.55503200  0.93597600  0.27742900  1
  O2-  O46  1  0.65119300  0.98266000  0.04089100  1
  O2-  O47  1  0.93703200  0.33497400  0.79353900  1
  O2-  O48  1  0.44647400  0.44737400  0.52414400  1
  O2-  O49  1  0.15227800  0.71703300  0.52634700  1
  O2-  O50  1  0.39497000  0.64920100  0.68974500  1
  O2-  O51  1  0.96255500  0.02695000  0.77838000  1
  O2-  O52  1  0.51709900  0.68303600  0.26255300  1
  O2-  O53  1  0.96621700  0.24509100  0.54938500  1
  O2-  O54  1  0.64902500  0.24031000  0.66902800  1
  O2-  O55  1  0.21424800  0.64978000  0.19532400  1
  O2-  O56  1  0.43766300  0.61294000  0.95968200  1
  O2-  O57  1  0.76620500  0.16920100  0.29996700  1
  O2-  O58  1  0.73522800  0.72684700  0.02950700  1
  O2-  O59  1  0.57012600  0.87765700  0.74720900  1
  O2-  O60  1  0.23698300  0.08809100  0.98549000  1
  O2-  O61  1  0.37688500  0.83690400  0.05933400  1
  O2-  O62  1  0.89297600  0.74301800  0.75665900  1
  O2-  O63  1  0.78732400  0.03204800  0.57850700  1
  O2-  O64  1  0.93584000  0.51308300  0.25568700  1
  O2-  O65  1  0.48342200  0.14993700  0.48814000  1
  O2-  O66  1  0.27631100  0.22436700  0.31663900  1
  O2-  O67  1  0.65288200  0.67182100  0.50490600  1
  O2-  O68  1  0.35250200  0.90372100  0.48446700  1
  O2-  O69  1  0.32503400  0.11335900  0.73057900  1
  O2-  O70  1  0.00042600  0.81292900  0.04278800  1
  O2-  O71  1  0.46527400  0.45742400  0.17919000  1
  O2-  O72  1  0.96204200  0.56858100  0.97385800  1
  O2-  O73  1  0.65043600  0.51842500  0.80393500  1
  O2-  O74  1  0.80260300  0.73987800  0.26787300  1
  O2-  O75  1  0.91014000  0.09898200  0.06615100  1
  O2-  O76  1  0.17150200  0.40944800  0.46695000  1
  O2-  O77  1  0.16946700  0.44651800  0.71973000  1
  O2-  O78  1  0.21584800  0.82425300  0.82811700  1
  O2-  O79  1  0.46430100  0.17426300  0.12673600  1
